file 18141162 1733221678                                        
version 3
run General-0-20241203-17:24:50-21920
attr configname General
attr datetime 20241203-17:24:50
attr datetimef 20241203-172450
attr experiment General
attr inifile omnetpp.ini
attr iterationvars ""
attr iterationvarsd ""
attr iterationvarsf ""
attr measurement ""
attr network final.Wifi6McsAnalysis
attr processid 21920
attr repetition 0
attr replication #0
attr resultdir results
attr runnumber 0
attr seedset 0
config image-path ../../../../../Dev/inet4.5/images
config network final.Wifi6McsAnalysis
config sim-time-limit 20s
config **.recordScalar true
config **.recordVector true
config *.radioMedium.snirThreshold 20dB
config *.client*.wlan.radio.recordReceptionDecisions true
config *.client*.wlan.radio.recordSignalPower true
config *.client*.wlan.mac.mcsLevelLogging true
config *.client*.wlan.mac.throughputLogging true
config *.client*.wlan.radio.dynamicMcsEnabled true
config *.client*.wlan.radio.snrThresholds "\"15:0,25:4,35:8,40:11\""
config *.accessPoint.wlan.radio.recordReceptionDecisions true
config *.accessPoint.wlan.radio.recordSignalPower true
config **.client*.recordScalar true
config **.client*.recordVector true
config *.metricGenerator.throughput 50
config *.metricGenerator.latency 10
config *.metricGenerator.currentMcs 5
config *.client*.wlan.radio.channelNumber 36
config *.client*.wlan.radio.bandwidth 80MHz
config *.client*.numApps 1
config *.client*.app[0].typename UdpBasicApp
config *.client*.app[0].localPort 5000
config *.client*.app[0].destPort 5000
config *.client*.app[0].destAddresses "\"192.168.1.1\""
config *.client*.app[0].messageLength 1024B
config *.client*.app[0].sendInterval 1ms
config *.client*.app[0].recordPacketDelays true
config *.client*.app[0].recordThroughput true
config *.accessPoint.app[0].recordThroughput true
config *.accessPoint.app[0].recordPacketDelays true
config *.accessPoint.wlan.mac.qosStationEnabled true
config *.client*.wlan.mac.qosStationEnabled true
config *.accessPoint.wlan.mac.edca.defaultAifsn 2
config *.accessPoint.wlan.mac.edca.defaultCwmin 15
config *.accessPoint.wlan.mac.edca.defaultCwmax 1023
config *.client*.wlan.mac.edca.defaultAifsn 2
config *.client*.wlan.mac.edca.defaultCwmin 15
config *.client*.wlan.mac.edca.defaultCwmax 1023
config **.throughput.record true
config **.latency.record true
config **.currentMcs.record true
config output-vector-file results/Wifi6McsAnalysis.vec
config output-scalar-file results/Wifi6McsAnalysis.sca

vector 0 Wifi6McsAnalysis.router.lo[0].lo rcvdPkFromHl:vector(packetBytes) ETV
attr interpolationmode none
attr recordingmode vector(packetBytes)
attr source packetReceivedFromUpper
attr title "packets received from higher layer, packetBytes"
vector 1 Wifi6McsAnalysis.router.lo[0].lo passedUpPk:vector(packetBytes) ETV
attr interpolationmode none
attr recordingmode vector(packetBytes)
attr source packetSentToUpper
attr title "packets passed to higher layer, packetBytes"
vector 2 Wifi6McsAnalysis.router.lo[0] packetDropInterfaceDown:vector(packetBytes) ETV
attr interpolationmode none
attr recordingmode vector(packetBytes)
attr source packetDropReasonIsInterfaceDown(packetDropped)
attr title "packet drops: interface down, packetBytes"
vector 3 Wifi6McsAnalysis.router.lo[0] packetDropNoCarrier:vector(packetBytes) ETV
attr interpolationmode none
attr recordingmode vector(packetBytes)
attr source packetDropReasonIsNoCarrier(packetDropped)
attr title "packet drops: no carrier, packetBytes"
vector 4 Wifi6McsAnalysis.router.ipv4.ip packetDropAddressResolutionFailed:vector(packetBytes) ETV
attr interpolationmode none
attr recordingmode vector(packetBytes)
attr source packetDropReasonIsAddressResolutionFailed(packetDropped)
attr title "packet drop: address resolution failed, packetBytes"
vector 5 Wifi6McsAnalysis.router.ipv4.ip packetDropHopLimitReached:vector(packetBytes) ETV
attr interpolationmode none
attr recordingmode vector(packetBytes)
attr source packetDropReasonIsHopLimitReached(packetDropped)
attr title "packet drop: hop limit reached, packetBytes"
vector 6 Wifi6McsAnalysis.router.ipv4.ip packetDropForwardingDisabled:vector(packetBytes) ETV
attr interpolationmode none
attr recordingmode vector(packetBytes)
attr source packetDropReasonIsForwardingDisabled(packetDropped)
attr title "packet drop: forwarding disabled, packetBytes"
vector 7 Wifi6McsAnalysis.router.ipv4.ip packetDropNoInterfaceFound:vector(packetBytes) ETV
attr interpolationmode none
attr recordingmode vector(packetBytes)
attr source packetDropReasonIsNoInterfaceFound(packetDropped)
attr title "packet drop: no interface found, packetBytes"
vector 8 Wifi6McsAnalysis.router.ipv4.ip packetDropNoRouteFound:vector(packetBytes) ETV
attr interpolationmode none
attr recordingmode vector(packetBytes)
attr source packetDropReasonIsNoRouteFound(packetDropped)
attr title "packet drop: no route found, packetBytes"
vector 9 Wifi6McsAnalysis.router.ipv4.ip packetDropUndefined:vector(packetBytes) ETV
attr interpolationmode none
attr recordingmode vector(packetBytes)
attr source packetDropReasonIsUndefined(packetDropped)
attr title "packet drop: undefined, packetBytes"
vector 10 Wifi6McsAnalysis.router.ipv4.arp arpRequestSent:vector(packetBytes) ETV
attr recordingmode vector(packetBytes)
attr source arpRequestSent
attr title "ARP request sent, packetBytes"
vector 11 Wifi6McsAnalysis.router.ipv4.arp arpReplySent:vector(packetBytes) ETV
attr recordingmode vector(packetBytes)
attr source arpReplySent
attr title "ARP replies sent, packetBytes"
vector 12 Wifi6McsAnalysis.accessPoint.wlan[0].mac.dcf.channelAccess.pendingQueue queueLength:vector ETV
attr autoWarmupFilter false
attr interpolationmode sample-hold
attr recordingmode vector
attr source "warmup(atomic(constant0(packetPushEnded) + count(packetPushStarted) - count(packetPulled) - count(packetRemoved) - count(packetDropped)))"
attr title "queue length"
attr unit pk
vector 13 Wifi6McsAnalysis.accessPoint.wlan[0].mac.dcf.channelAccess.pendingQueue queueBitLength:vector ETV
attr autoWarmupFilter false
attr interpolationmode sample-hold
attr recordingmode vector
attr source "warmup(atomic(constant0(packetPushEnded) + sum(packetLength(packetPushStarted)) - sum(packetLength(packetPulled)) - sum(packetLength(packetRemoved)) - sum(packetLength(packetDropped))))"
attr title "queue bit length"
attr unit b
vector 14 Wifi6McsAnalysis.accessPoint.wlan[0].mac.dcf.channelAccess.pendingQueue queueingTime:vector ETV
attr interpolationmode none
attr recordingmode vector
attr source queueingTime(packetPulled)
attr title "queueing times"
attr unit s
vector 15 Wifi6McsAnalysis.accessPoint.wlan[0].mac.dcf.channelAccess.pendingQueue incomingPacketLengths:vector ETV
attr interpolationmode none
attr recordingmode vector
attr source packetLength(packetPushStarted)
attr title "incoming packet lengths"
attr unit b
vector 16 Wifi6McsAnalysis.accessPoint.wlan[0].mac.dcf.channelAccess.pendingQueue incomingDataRate:vector ETV
attr interpolationmode linear
attr recordingmode vector
attr source throughput(packetPushStarted)
attr title "incoming datarate"
attr unit bps
vector 17 Wifi6McsAnalysis.accessPoint.wlan[0].mac.dcf.channelAccess.pendingQueue outgoingPacketLengths:vector ETV
attr interpolationmode none
attr recordingmode vector
attr source packetLength(packetPulled)
attr title "outgoing packet lengths"
attr unit b
vector 18 Wifi6McsAnalysis.accessPoint.wlan[0].mac.dcf.channelAccess.pendingQueue outgoingDataRate:vector ETV
attr interpolationmode linear
attr recordingmode vector
attr source throughput(packetPulled)
attr title "outgoing datarate"
attr unit bps
vector 19 Wifi6McsAnalysis.accessPoint.wlan[0].mac.dcf.channelAccess.pendingQueue droppedPacketLengthsQueueOverflow:vector ETV
attr interpolationmode none
attr recordingmode vector
attr source packetLength(packetDropReasonIsQueueOverflow(packetDropped))
attr title "dropped packet lengths: queue overflow"
attr unit b
vector 20 Wifi6McsAnalysis.accessPoint.wlan[0].mac.dcf.channelAccess.pendingQueue flowQueueingTime:vector ETV
attr interpolationmode none
attr recordingmode vector
attr source queueingTime(demuxFlow(packetPulled))
attr title "flow queueing times"
attr unit s
vector 21 Wifi6McsAnalysis.accessPoint.wlan[0].mac.dcf.channelAccess.pendingQueue flowIncomingDataRate:vector ETV
attr interpolationmode linear
attr recordingmode vector
attr source throughput(flowPacketLength(demuxFlow(packetPushStarted)))
attr title "flow specific incoming data rate"
attr unit bps
vector 22 Wifi6McsAnalysis.accessPoint.wlan[0].mac.dcf.channelAccess.pendingQueue flowOutgoingDataRate:vector ETV
attr interpolationmode linear
attr recordingmode vector
attr source throughput(flowPacketLength(demuxFlow(packetPulled)))
attr title "flow specific outgoing data rate"
attr unit bps
vector 23 Wifi6McsAnalysis.accessPoint.wlan[0].mac.dcf.channelAccess.inProgressFrames queueingTime:vector ETV
attr interpolationmode none
attr recordingmode vector
attr source queueingTime(packetDequeued)
attr title "queueing times"
vector 24 Wifi6McsAnalysis.accessPoint.wlan[0].mac.dcf.channelAccess.inProgressFrames queueLength:vector ETV
attr autoWarmupFilter false
attr interpolationmode sample-hold
attr recordingmode vector
attr source "warmup(count(packetEnqueued) - count(packetDequeued))"
attr title "queue length"
vector 25 Wifi6McsAnalysis.accessPoint.wlan[0].mac.dcf.channelAccess.contention backoffPeriodGenerated:vector ETV
attr interpolationmode none
attr recordingmode vector
attr title "backoff periods"
vector 26 Wifi6McsAnalysis.accessPoint.wlan[0].mac.dcf.channelAccess.contention backoffActive:vector ETV
attr autoWarmupFilter false
attr interpolationmode sample-hold
attr recordingmode vector
attr source warmup(count(backoffStarted)-count(backoffStopped))
attr title "backoff active"
vector 27 Wifi6McsAnalysis.accessPoint.wlan[0].mac.dcf.channelAccess.contention stateChanged:vector ETV
attr enum IDLE,DEFER,IFS_AND_BACKOFF
attr interpolationmode none
attr recordingmode vector
attr title "contention state changed"
attr type enum
vector 28 Wifi6McsAnalysis.accessPoint.wlan[0].mac.dcf.recipientMacDataService packetDropDuplicateDetected:vector(packetBytes) ETV
attr interpolationmode none
attr recordingmode vector(packetBytes)
attr source packetDropReasonIsDuplicateDetected(packetDropped)
attr title "packet drops: duplicate detected, packetBytes"
vector 29 Wifi6McsAnalysis.accessPoint.wlan[0].mac.dcf.recoveryProcedure contentionWindowChanged:vector ETV
attr interpolationmode sample-hold
attr recordingmode vector
attr title "contention window"
vector 30 Wifi6McsAnalysis.accessPoint.wlan[0].mac.dcf packetSentToPeer:vector(packetBytes) ETV
attr interpolationmode none
attr recordingmode vector(packetBytes)
attr title "packets sent, packetBytes"
vector 31 Wifi6McsAnalysis.accessPoint.wlan[0].mac.dcf packetSentToPeerUnicast:vector(packetBytes) ETV
attr interpolationmode none
attr recordingmode vector(packetBytes)
attr source ieee80211Unicast(packetSentToPeer)
attr title "packets sent: unicast, packetBytes"
vector 32 Wifi6McsAnalysis.accessPoint.wlan[0].mac.dcf packetSentToPeerMulticast:vector(packetBytes) ETV
attr interpolationmode none
attr recordingmode vector(packetBytes)
attr source ieee80211Multicast(packetSentToPeer)
attr title "packets sent: multicast, packetBytes"
vector 33 Wifi6McsAnalysis.accessPoint.wlan[0].mac.dcf packetSentToPeerBroadcast:vector(packetBytes) ETV
attr interpolationmode none
attr recordingmode vector(packetBytes)
attr source ieee80211Broadcast(packetSentToPeer)
attr title "packets sent: broadcast , packetBytes"
vector 34 Wifi6McsAnalysis.accessPoint.wlan[0].mac.dcf packetSentToPeerWithRetry:vector(packetBytes) ETV
attr interpolationmode none
attr recordingmode vector(packetBytes)
attr source ieee80211Retry(packetSentToPeer)
attr title "packets sent: with retry, packetBytes"
vector 35 Wifi6McsAnalysis.accessPoint.wlan[0].mac.dcf packetSentToPeerWithoutRetry:vector(packetBytes) ETV
attr interpolationmode none
attr recordingmode vector(packetBytes)
attr source ieee80211NotRetry(packetSentToPeer)
attr title "packets sent: without retry, packetBytes"
vector 36 Wifi6McsAnalysis.accessPoint.wlan[0].mac.dcf packetReceivedFromPeer:vector(packetBytes) ETV
attr interpolationmode none
attr recordingmode vector(packetBytes)
attr title "packets received, packetBytes"
vector 37 Wifi6McsAnalysis.accessPoint.wlan[0].mac.dcf packetReceivedFromPeerUnicast:vector(packetBytes) ETV
attr interpolationmode none
attr recordingmode vector(packetBytes)
attr source ieee80211Unicast(packetReceivedFromPeer)
attr title "packets received: unicast, packetBytes"
vector 38 Wifi6McsAnalysis.accessPoint.wlan[0].mac.dcf packetReceivedFromPeerMulticast:vector(packetBytes) ETV
attr interpolationmode none
attr recordingmode vector(packetBytes)
attr source ieee80211Multicast(packetReceivedFromPeer)
attr title "packets received: multicast, packetBytes"
vector 39 Wifi6McsAnalysis.accessPoint.wlan[0].mac.dcf packetReceivedFromPeerBroadcast:vector(packetBytes) ETV
attr interpolationmode none
attr recordingmode vector(packetBytes)
attr source ieee80211Broadcast(packetReceivedFromPeer)
attr title "packets received: broadcast, packetBytes"
vector 40 Wifi6McsAnalysis.accessPoint.wlan[0].mac.dcf packetReceivedFromPeerWithRetry:vector(packetBytes) ETV
attr interpolationmode none
attr recordingmode vector(packetBytes)
attr source ieee80211Retry(packetReceivedFromPeer)
attr title "packets received: with retry, packetBytes"
vector 41 Wifi6McsAnalysis.accessPoint.wlan[0].mac.dcf packetReceivedFromPeerWithoutRetry:vector(packetBytes) ETV
attr interpolationmode none
attr recordingmode vector(packetBytes)
attr source ieee80211NotRetry(packetReceivedFromPeer)
attr title "packets received: without retry, packetBytes"
vector 42 Wifi6McsAnalysis.accessPoint.wlan[0].mac.dcf packetDrop:vector(packetBytes) ETV
attr interpolationmode none
attr recordingmode vector(packetBytes)
attr source packetDropped
attr title "packet drops, packetBytes"
vector 43 Wifi6McsAnalysis.accessPoint.wlan[0].mac.dcf packetDropNotAddressedToUs:vector(packetBytes) ETV
attr interpolationmode none
attr recordingmode vector(packetBytes)
attr source packetDropReasonIsNotAddressedToUs(packetDropped)
attr title "packet drops: not addressed to us, packetBytes"
vector 44 Wifi6McsAnalysis.accessPoint.wlan[0].mac.dcf packetDropQueueOverflow:vector(packetBytes) ETV
attr interpolationmode none
attr recordingmode vector(packetBytes)
attr source packetDropReasonIsQueueOverflow(packetDropped)
attr title "packet drops: queue overflow, packetBytes"
vector 45 Wifi6McsAnalysis.accessPoint.wlan[0].mac.dcf packetDropRetryLimitReached:vector(packetBytes) ETV
attr interpolationmode none
attr recordingmode vector(packetBytes)
attr source packetDropReasonIsRetryLimitReached(packetDropped)
attr title "packet drops: retry limit reached, packetBytes"
vector 46 Wifi6McsAnalysis.accessPoint.wlan[0].mac.dcf frameSequenceActive:vector ETV
attr autoWarmupFilter false
attr interpolationmode sample-hold
attr recordingmode vector
attr source warmup(count(frameSequenceStarted)-count(frameSequenceFinished))
attr title "frame sequence active"
vector 47 Wifi6McsAnalysis.accessPoint.wlan[0].mac.dcf datarateSelected:vector ETV
attr interpolationmode none
attr recordingmode vector
attr title "datarates selected"
vector 48 Wifi6McsAnalysis.accessPoint.wlan[0].mac.rx nav:vector ETV
attr interpolationmode linear
attr recordingmode vector
attr source navChanged
attr title "network allocation vector"
vector 49 Wifi6McsAnalysis.accessPoint.wlan[0].mac packetSentToUpper:vector(packetBytes) ETV
attr interpolationmode none
attr recordingmode vector(packetBytes)
attr title "packets sent to upper layer, packetBytes"
vector 50 Wifi6McsAnalysis.accessPoint.wlan[0].mac packetSentToLower:vector(packetBytes) ETV
attr interpolationmode none
attr recordingmode vector(packetBytes)
attr title "packets sent to lower layer, packetBytes"
vector 51 Wifi6McsAnalysis.accessPoint.wlan[0].mac packetReceivedFromUpper:vector(packetBytes) ETV
attr interpolationmode none
attr recordingmode vector(packetBytes)
attr title "packets received from upper layer, packetBytes"
vector 52 Wifi6McsAnalysis.accessPoint.wlan[0].mac packetReceivedFromLower:vector(packetBytes) ETV
attr interpolationmode none
attr recordingmode vector(packetBytes)
attr title "packets received from lower layer, packetBytes"
vector 53 Wifi6McsAnalysis.accessPoint.wlan[0].mac packetDrop:vector(packetBytes) ETV
attr interpolationmode none
attr recordingmode vector(packetBytes)
attr source packetDropped
attr title "packet drops, packetBytes"
vector 54 Wifi6McsAnalysis.accessPoint.wlan[0].mac packetDropIncorrectlyReceived:vector(packetBytes) ETV
attr interpolationmode none
attr recordingmode vector(packetBytes)
attr source packetDropReasonIsIncorrectlyReceived(packetDropped)
attr title "packet drops: incorrectly received, packetBytes"
vector 55 Wifi6McsAnalysis.accessPoint.wlan[0].mac packetDropNotAddressedToUs:vector(packetBytes) ETV
attr interpolationmode none
attr recordingmode vector(packetBytes)
attr source packetDropReasonIsNotAddressedToUs(packetDropped)
attr title "packet drops: not addressed to us, packetBytes"
vector 56 Wifi6McsAnalysis.accessPoint.wlan[0].mac packetDropQueueOverflow:vector(packetBytes) ETV
attr interpolationmode none
attr recordingmode vector(packetBytes)
attr source packetDropReasonIsQueueOverflow(packetDropped)
attr title "packet drops: queue overflow, packetBytes"
vector 57 Wifi6McsAnalysis.accessPoint.wlan[0].mac packetDropRetryLimitReached:vector(packetBytes) ETV
attr interpolationmode none
attr recordingmode vector(packetBytes)
attr source packetDropReasonIsRetryLimitReached(packetDropped)
attr title "packet drops: retry limit reached, packetBytes"
vector 58 Wifi6McsAnalysis.accessPoint.wlan[0].mac packetDropDuplicateDetected:vector(packetBytes) ETV
attr interpolationmode none
attr recordingmode vector(packetBytes)
attr source packetDropReasonIsDuplicateDetected(packetDropped)
attr title "packet drops: duplicate detected, packetBytes"
vector 59 Wifi6McsAnalysis.accessPoint.wlan[0].mac packetDropOther:vector(packetBytes) ETV
attr interpolationmode none
attr recordingmode vector(packetBytes)
attr source packetDropReasonIsOther(packetDropped)
attr title "packet drops: other, packetBytes"
vector 60 Wifi6McsAnalysis.accessPoint.wlan[0].radio radioMode:vector ETV
attr interpolationmode sample-hold
attr recordingmode vector
attr source radioModeChanged
attr title "Radio mode"
vector 61 Wifi6McsAnalysis.accessPoint.wlan[0].radio receptionState:vector ETV
attr interpolationmode sample-hold
attr recordingmode vector
attr source receptionStateChanged
attr title "Radio reception state"
vector 62 Wifi6McsAnalysis.accessPoint.wlan[0].radio transmissionState:vector ETV
attr interpolationmode sample-hold
attr recordingmode vector
attr source transmissionStateChanged
attr title "Radio transmission state"
vector 63 Wifi6McsAnalysis.accessPoint.wlan[0].radio radioChannel:vector ETV
attr interpolationmode sample-hold
attr recordingmode vector
attr source radioChannelChanged
attr title "Radio channel"
vector 64 Wifi6McsAnalysis.accessPoint.wlan[0] packetDropInterfaceDown:vector(packetBytes) ETV
attr interpolationmode none
attr recordingmode vector(packetBytes)
attr source packetDropReasonIsInterfaceDown(packetDropped)
attr title "packet drops: interface down, packetBytes"
vector 65 Wifi6McsAnalysis.accessPoint.wlan[0] packetDropNoCarrier:vector(packetBytes) ETV
attr interpolationmode none
attr recordingmode vector(packetBytes)
attr source packetDropReasonIsNoCarrier(packetDropped)
attr title "packet drops: no carrier, packetBytes"
vector 66 Wifi6McsAnalysis.client0.lo[0].lo rcvdPkFromHl:vector(packetBytes) ETV
attr interpolationmode none
attr recordingmode vector(packetBytes)
attr source packetReceivedFromUpper
attr title "packets received from higher layer, packetBytes"
vector 67 Wifi6McsAnalysis.client0.lo[0].lo passedUpPk:vector(packetBytes) ETV
attr interpolationmode none
attr recordingmode vector(packetBytes)
attr source packetSentToUpper
attr title "packets passed to higher layer, packetBytes"
vector 68 Wifi6McsAnalysis.client0.lo[0] packetDropInterfaceDown:vector(packetBytes) ETV
attr interpolationmode none
attr recordingmode vector(packetBytes)
attr source packetDropReasonIsInterfaceDown(packetDropped)
attr title "packet drops: interface down, packetBytes"
vector 69 Wifi6McsAnalysis.client0.lo[0] packetDropNoCarrier:vector(packetBytes) ETV
attr interpolationmode none
attr recordingmode vector(packetBytes)
attr source packetDropReasonIsNoCarrier(packetDropped)
attr title "packet drops: no carrier, packetBytes"
vector 70 Wifi6McsAnalysis.client0.wlan[0].agent sentRequest:vector ETV
attr recordingmode vector
attr title "sent requests"
vector 71 Wifi6McsAnalysis.client0.wlan[0].agent acceptConfirm:vector ETV
attr recordingmode vector
attr title "accepted confirms"
vector 72 Wifi6McsAnalysis.client0.wlan[0].agent dropConfirm:vector ETV
attr recordingmode vector
attr title "dropped confirms"
vector 73 Wifi6McsAnalysis.client0.wlan[0].mac.dcf.channelAccess.pendingQueue queueLength:vector ETV
attr autoWarmupFilter false
attr interpolationmode sample-hold
attr recordingmode vector
attr source "warmup(atomic(constant0(packetPushEnded) + count(packetPushStarted) - count(packetPulled) - count(packetRemoved) - count(packetDropped)))"
attr title "queue length"
attr unit pk
vector 74 Wifi6McsAnalysis.client0.wlan[0].mac.dcf.channelAccess.pendingQueue queueBitLength:vector ETV
attr autoWarmupFilter false
attr interpolationmode sample-hold
attr recordingmode vector
attr source "warmup(atomic(constant0(packetPushEnded) + sum(packetLength(packetPushStarted)) - sum(packetLength(packetPulled)) - sum(packetLength(packetRemoved)) - sum(packetLength(packetDropped))))"
attr title "queue bit length"
attr unit b
vector 75 Wifi6McsAnalysis.client0.wlan[0].mac.dcf.channelAccess.pendingQueue queueingTime:vector ETV
attr interpolationmode none
attr recordingmode vector
attr source queueingTime(packetPulled)
attr title "queueing times"
attr unit s
vector 76 Wifi6McsAnalysis.client0.wlan[0].mac.dcf.channelAccess.pendingQueue incomingPacketLengths:vector ETV
attr interpolationmode none
attr recordingmode vector
attr source packetLength(packetPushStarted)
attr title "incoming packet lengths"
attr unit b
vector 77 Wifi6McsAnalysis.client0.wlan[0].mac.dcf.channelAccess.pendingQueue incomingDataRate:vector ETV
attr interpolationmode linear
attr recordingmode vector
attr source throughput(packetPushStarted)
attr title "incoming datarate"
attr unit bps
vector 78 Wifi6McsAnalysis.client0.wlan[0].mac.dcf.channelAccess.pendingQueue outgoingPacketLengths:vector ETV
attr interpolationmode none
attr recordingmode vector
attr source packetLength(packetPulled)
attr title "outgoing packet lengths"
attr unit b
vector 79 Wifi6McsAnalysis.client0.wlan[0].mac.dcf.channelAccess.pendingQueue outgoingDataRate:vector ETV
attr interpolationmode linear
attr recordingmode vector
attr source throughput(packetPulled)
attr title "outgoing datarate"
attr unit bps
vector 80 Wifi6McsAnalysis.client0.wlan[0].mac.dcf.channelAccess.pendingQueue droppedPacketLengthsQueueOverflow:vector ETV
attr interpolationmode none
attr recordingmode vector
attr source packetLength(packetDropReasonIsQueueOverflow(packetDropped))
attr title "dropped packet lengths: queue overflow"
attr unit b
vector 81 Wifi6McsAnalysis.client0.wlan[0].mac.dcf.channelAccess.pendingQueue flowQueueingTime:vector ETV
attr interpolationmode none
attr recordingmode vector
attr source queueingTime(demuxFlow(packetPulled))
attr title "flow queueing times"
attr unit s
vector 82 Wifi6McsAnalysis.client0.wlan[0].mac.dcf.channelAccess.pendingQueue flowIncomingDataRate:vector ETV
attr interpolationmode linear
attr recordingmode vector
attr source throughput(flowPacketLength(demuxFlow(packetPushStarted)))
attr title "flow specific incoming data rate"
attr unit bps
vector 83 Wifi6McsAnalysis.client0.wlan[0].mac.dcf.channelAccess.pendingQueue flowOutgoingDataRate:vector ETV
attr interpolationmode linear
attr recordingmode vector
attr source throughput(flowPacketLength(demuxFlow(packetPulled)))
attr title "flow specific outgoing data rate"
attr unit bps
vector 84 Wifi6McsAnalysis.client0.wlan[0].mac.dcf.channelAccess.inProgressFrames queueingTime:vector ETV
attr interpolationmode none
attr recordingmode vector
attr source queueingTime(packetDequeued)
attr title "queueing times"
vector 85 Wifi6McsAnalysis.client0.wlan[0].mac.dcf.channelAccess.inProgressFrames queueLength:vector ETV
attr autoWarmupFilter false
attr interpolationmode sample-hold
attr recordingmode vector
attr source "warmup(count(packetEnqueued) - count(packetDequeued))"
attr title "queue length"
vector 86 Wifi6McsAnalysis.client0.wlan[0].mac.dcf.channelAccess.contention backoffPeriodGenerated:vector ETV
attr interpolationmode none
attr recordingmode vector
attr title "backoff periods"
vector 87 Wifi6McsAnalysis.client0.wlan[0].mac.dcf.channelAccess.contention backoffActive:vector ETV
attr autoWarmupFilter false
attr interpolationmode sample-hold
attr recordingmode vector
attr source warmup(count(backoffStarted)-count(backoffStopped))
attr title "backoff active"
vector 88 Wifi6McsAnalysis.client0.wlan[0].mac.dcf.channelAccess.contention stateChanged:vector ETV
attr enum IDLE,DEFER,IFS_AND_BACKOFF
attr interpolationmode none
attr recordingmode vector
attr title "contention state changed"
attr type enum
vector 89 Wifi6McsAnalysis.client0.wlan[0].mac.dcf.recipientMacDataService packetDropDuplicateDetected:vector(packetBytes) ETV
attr interpolationmode none
attr recordingmode vector(packetBytes)
attr source packetDropReasonIsDuplicateDetected(packetDropped)
attr title "packet drops: duplicate detected, packetBytes"
vector 90 Wifi6McsAnalysis.client0.wlan[0].mac.dcf.recoveryProcedure contentionWindowChanged:vector ETV
attr interpolationmode sample-hold
attr recordingmode vector
attr title "contention window"
vector 91 Wifi6McsAnalysis.client0.wlan[0].mac.dcf packetSentToPeer:vector(packetBytes) ETV
attr interpolationmode none
attr recordingmode vector(packetBytes)
attr title "packets sent, packetBytes"
vector 92 Wifi6McsAnalysis.client0.wlan[0].mac.dcf packetSentToPeerUnicast:vector(packetBytes) ETV
attr interpolationmode none
attr recordingmode vector(packetBytes)
attr source ieee80211Unicast(packetSentToPeer)
attr title "packets sent: unicast, packetBytes"
vector 93 Wifi6McsAnalysis.client0.wlan[0].mac.dcf packetSentToPeerMulticast:vector(packetBytes) ETV
attr interpolationmode none
attr recordingmode vector(packetBytes)
attr source ieee80211Multicast(packetSentToPeer)
attr title "packets sent: multicast, packetBytes"
vector 94 Wifi6McsAnalysis.client0.wlan[0].mac.dcf packetSentToPeerBroadcast:vector(packetBytes) ETV
attr interpolationmode none
attr recordingmode vector(packetBytes)
attr source ieee80211Broadcast(packetSentToPeer)
attr title "packets sent: broadcast , packetBytes"
vector 95 Wifi6McsAnalysis.client0.wlan[0].mac.dcf packetSentToPeerWithRetry:vector(packetBytes) ETV
attr interpolationmode none
attr recordingmode vector(packetBytes)
attr source ieee80211Retry(packetSentToPeer)
attr title "packets sent: with retry, packetBytes"
vector 96 Wifi6McsAnalysis.client0.wlan[0].mac.dcf packetSentToPeerWithoutRetry:vector(packetBytes) ETV
attr interpolationmode none
attr recordingmode vector(packetBytes)
attr source ieee80211NotRetry(packetSentToPeer)
attr title "packets sent: without retry, packetBytes"
vector 97 Wifi6McsAnalysis.client0.wlan[0].mac.dcf packetReceivedFromPeer:vector(packetBytes) ETV
attr interpolationmode none
attr recordingmode vector(packetBytes)
attr title "packets received, packetBytes"
vector 98 Wifi6McsAnalysis.client0.wlan[0].mac.dcf packetReceivedFromPeerUnicast:vector(packetBytes) ETV
attr interpolationmode none
attr recordingmode vector(packetBytes)
attr source ieee80211Unicast(packetReceivedFromPeer)
attr title "packets received: unicast, packetBytes"
vector 99 Wifi6McsAnalysis.client0.wlan[0].mac.dcf packetReceivedFromPeerMulticast:vector(packetBytes) ETV
attr interpolationmode none
attr recordingmode vector(packetBytes)
attr source ieee80211Multicast(packetReceivedFromPeer)
attr title "packets received: multicast, packetBytes"
vector 100 Wifi6McsAnalysis.client0.wlan[0].mac.dcf packetReceivedFromPeerBroadcast:vector(packetBytes) ETV
attr interpolationmode none
attr recordingmode vector(packetBytes)
attr source ieee80211Broadcast(packetReceivedFromPeer)
attr title "packets received: broadcast, packetBytes"
vector 101 Wifi6McsAnalysis.client0.wlan[0].mac.dcf packetReceivedFromPeerWithRetry:vector(packetBytes) ETV
attr interpolationmode none
attr recordingmode vector(packetBytes)
attr source ieee80211Retry(packetReceivedFromPeer)
attr title "packets received: with retry, packetBytes"
vector 102 Wifi6McsAnalysis.client0.wlan[0].mac.dcf packetReceivedFromPeerWithoutRetry:vector(packetBytes) ETV
attr interpolationmode none
attr recordingmode vector(packetBytes)
attr source ieee80211NotRetry(packetReceivedFromPeer)
attr title "packets received: without retry, packetBytes"
vector 103 Wifi6McsAnalysis.client0.wlan[0].mac.dcf packetDrop:vector(packetBytes) ETV
attr interpolationmode none
attr recordingmode vector(packetBytes)
attr source packetDropped
attr title "packet drops, packetBytes"
vector 104 Wifi6McsAnalysis.client0.wlan[0].mac.dcf packetDropNotAddressedToUs:vector(packetBytes) ETV
attr interpolationmode none
attr recordingmode vector(packetBytes)
attr source packetDropReasonIsNotAddressedToUs(packetDropped)
attr title "packet drops: not addressed to us, packetBytes"
vector 105 Wifi6McsAnalysis.client0.wlan[0].mac.dcf packetDropQueueOverflow:vector(packetBytes) ETV
attr interpolationmode none
attr recordingmode vector(packetBytes)
attr source packetDropReasonIsQueueOverflow(packetDropped)
attr title "packet drops: queue overflow, packetBytes"
vector 106 Wifi6McsAnalysis.client0.wlan[0].mac.dcf packetDropRetryLimitReached:vector(packetBytes) ETV
attr interpolationmode none
attr recordingmode vector(packetBytes)
attr source packetDropReasonIsRetryLimitReached(packetDropped)
attr title "packet drops: retry limit reached, packetBytes"
vector 107 Wifi6McsAnalysis.client0.wlan[0].mac.dcf frameSequenceActive:vector ETV
attr autoWarmupFilter false
attr interpolationmode sample-hold
attr recordingmode vector
attr source warmup(count(frameSequenceStarted)-count(frameSequenceFinished))
attr title "frame sequence active"
vector 108 Wifi6McsAnalysis.client0.wlan[0].mac.dcf datarateSelected:vector ETV
attr interpolationmode none
attr recordingmode vector
attr title "datarates selected"
vector 109 Wifi6McsAnalysis.client0.wlan[0].mac.rx nav:vector ETV
attr interpolationmode linear
attr recordingmode vector
attr source navChanged
attr title "network allocation vector"
vector 110 Wifi6McsAnalysis.client0.wlan[0].mac packetSentToUpper:vector(packetBytes) ETV
attr interpolationmode none
attr recordingmode vector(packetBytes)
attr title "packets sent to upper layer, packetBytes"
vector 111 Wifi6McsAnalysis.client0.wlan[0].mac packetSentToLower:vector(packetBytes) ETV
attr interpolationmode none
attr recordingmode vector(packetBytes)
attr title "packets sent to lower layer, packetBytes"
vector 112 Wifi6McsAnalysis.client0.wlan[0].mac packetReceivedFromUpper:vector(packetBytes) ETV
attr interpolationmode none
attr recordingmode vector(packetBytes)
attr title "packets received from upper layer, packetBytes"
vector 113 Wifi6McsAnalysis.client0.wlan[0].mac packetReceivedFromLower:vector(packetBytes) ETV
attr interpolationmode none
attr recordingmode vector(packetBytes)
attr title "packets received from lower layer, packetBytes"
vector 114 Wifi6McsAnalysis.client0.wlan[0].mac packetDrop:vector(packetBytes) ETV
attr interpolationmode none
attr recordingmode vector(packetBytes)
attr source packetDropped
attr title "packet drops, packetBytes"
vector 115 Wifi6McsAnalysis.client0.wlan[0].mac packetDropIncorrectlyReceived:vector(packetBytes) ETV
attr interpolationmode none
attr recordingmode vector(packetBytes)
attr source packetDropReasonIsIncorrectlyReceived(packetDropped)
attr title "packet drops: incorrectly received, packetBytes"
vector 116 Wifi6McsAnalysis.client0.wlan[0].mac packetDropNotAddressedToUs:vector(packetBytes) ETV
attr interpolationmode none
attr recordingmode vector(packetBytes)
attr source packetDropReasonIsNotAddressedToUs(packetDropped)
attr title "packet drops: not addressed to us, packetBytes"
vector 117 Wifi6McsAnalysis.client0.wlan[0].mac packetDropQueueOverflow:vector(packetBytes) ETV
attr interpolationmode none
attr recordingmode vector(packetBytes)
attr source packetDropReasonIsQueueOverflow(packetDropped)
attr title "packet drops: queue overflow, packetBytes"
vector 118 Wifi6McsAnalysis.client0.wlan[0].mac packetDropRetryLimitReached:vector(packetBytes) ETV
attr interpolationmode none
attr recordingmode vector(packetBytes)
attr source packetDropReasonIsRetryLimitReached(packetDropped)
attr title "packet drops: retry limit reached, packetBytes"
vector 119 Wifi6McsAnalysis.client0.wlan[0].mac packetDropDuplicateDetected:vector(packetBytes) ETV
attr interpolationmode none
attr recordingmode vector(packetBytes)
attr source packetDropReasonIsDuplicateDetected(packetDropped)
attr title "packet drops: duplicate detected, packetBytes"
vector 120 Wifi6McsAnalysis.client0.wlan[0].mac packetDropOther:vector(packetBytes) ETV
attr interpolationmode none
attr recordingmode vector(packetBytes)
attr source packetDropReasonIsOther(packetDropped)
attr title "packet drops: other, packetBytes"
vector 121 Wifi6McsAnalysis.client0.wlan[0].radio radioMode:vector ETV
attr interpolationmode sample-hold
attr recordingmode vector
attr source radioModeChanged
attr title "Radio mode"
vector 122 Wifi6McsAnalysis.client0.wlan[0].radio receptionState:vector ETV
attr interpolationmode sample-hold
attr recordingmode vector
attr source receptionStateChanged
attr title "Radio reception state"
vector 123 Wifi6McsAnalysis.client0.wlan[0].radio transmissionState:vector ETV
attr interpolationmode sample-hold
attr recordingmode vector
attr source transmissionStateChanged
attr title "Radio transmission state"
vector 124 Wifi6McsAnalysis.client0.wlan[0].radio radioChannel:vector ETV
attr interpolationmode sample-hold
attr recordingmode vector
attr source radioChannelChanged
attr title "Radio channel"
vector 125 Wifi6McsAnalysis.client0.wlan[0] packetDropInterfaceDown:vector(packetBytes) ETV
attr interpolationmode none
attr recordingmode vector(packetBytes)
attr source packetDropReasonIsInterfaceDown(packetDropped)
attr title "packet drops: interface down, packetBytes"
vector 126 Wifi6McsAnalysis.client0.wlan[0] packetDropNoCarrier:vector(packetBytes) ETV
attr interpolationmode none
attr recordingmode vector(packetBytes)
attr source packetDropReasonIsNoCarrier(packetDropped)
attr title "packet drops: no carrier, packetBytes"
vector 127 Wifi6McsAnalysis.client0.ipv4.ip packetDropAddressResolutionFailed:vector(packetBytes) ETV
attr interpolationmode none
attr recordingmode vector(packetBytes)
attr source packetDropReasonIsAddressResolutionFailed(packetDropped)
attr title "packet drop: address resolution failed, packetBytes"
vector 128 Wifi6McsAnalysis.client0.ipv4.ip packetDropHopLimitReached:vector(packetBytes) ETV
attr interpolationmode none
attr recordingmode vector(packetBytes)
attr source packetDropReasonIsHopLimitReached(packetDropped)
attr title "packet drop: hop limit reached, packetBytes"
vector 129 Wifi6McsAnalysis.client0.ipv4.ip packetDropForwardingDisabled:vector(packetBytes) ETV
attr interpolationmode none
attr recordingmode vector(packetBytes)
attr source packetDropReasonIsForwardingDisabled(packetDropped)
attr title "packet drop: forwarding disabled, packetBytes"
vector 130 Wifi6McsAnalysis.client0.ipv4.ip packetDropNoInterfaceFound:vector(packetBytes) ETV
attr interpolationmode none
attr recordingmode vector(packetBytes)
attr source packetDropReasonIsNoInterfaceFound(packetDropped)
attr title "packet drop: no interface found, packetBytes"
vector 131 Wifi6McsAnalysis.client0.ipv4.ip packetDropNoRouteFound:vector(packetBytes) ETV
attr interpolationmode none
attr recordingmode vector(packetBytes)
attr source packetDropReasonIsNoRouteFound(packetDropped)
attr title "packet drop: no route found, packetBytes"
vector 132 Wifi6McsAnalysis.client0.ipv4.ip packetDropUndefined:vector(packetBytes) ETV
attr interpolationmode none
attr recordingmode vector(packetBytes)
attr source packetDropReasonIsUndefined(packetDropped)
attr title "packet drop: undefined, packetBytes"
vector 133 Wifi6McsAnalysis.client0.ipv4.arp arpRequestSent:vector(packetBytes) ETV
attr recordingmode vector(packetBytes)
attr source arpRequestSent
attr title "ARP request sent, packetBytes"
vector 134 Wifi6McsAnalysis.client0.ipv4.arp arpReplySent:vector(packetBytes) ETV
attr recordingmode vector(packetBytes)
attr source arpReplySent
attr title "ARP replies sent, packetBytes"
vector 135 Wifi6McsAnalysis.client0.udp packetSent:vector(packetBytes) ETV
attr interpolationmode none
attr recordingmode vector(packetBytes)
attr source packetSent
attr title "packets sent, packetBytes"
vector 136 Wifi6McsAnalysis.client0.udp packetReceived:vector(packetBytes) ETV
attr interpolationmode none
attr recordingmode vector(packetBytes)
attr source packetReceived
attr title "packets received, packetBytes"
vector 137 Wifi6McsAnalysis.client0.udp passedUpPk:vector(count) ETV
attr interpolationmode none
attr recordingmode vector(count)
attr source packetSentToUpper
attr title "packets passed up, count"
vector 138 Wifi6McsAnalysis.client0.udp droppedPkWrongPort:vector(count) ETV
attr interpolationmode none
attr recordingmode vector(count)
attr source packetDropReasonIsNoPortFound(packetDropped)
attr title "packets dropped (wrong port), count"
vector 139 Wifi6McsAnalysis.client0.udp droppedPkBadChecksum:vector(count) ETV
attr interpolationmode none
attr recordingmode vector(count)
attr source packetDropReasonIsIncorrectlyReceived(packetDropped)
attr title "packets dropped (checksum error), count"
vector 140 Wifi6McsAnalysis.client0.app[0] packetReceived:vector(packetBytes) ETV
attr interpolationmode none
attr recordingmode vector(packetBytes)
attr source packetReceived
attr title "packets received, packetBytes"
vector 141 Wifi6McsAnalysis.client0.app[0] throughput:vector ETV
attr recordingmode vector
attr source throughput(packetReceived)
attr title throughput
attr unit bps
vector 142 Wifi6McsAnalysis.client0.app[0] packetSent:vector(packetBytes) ETV
attr interpolationmode none
attr recordingmode vector(packetBytes)
attr source packetSent
attr title "packets sent, packetBytes"
vector 143 Wifi6McsAnalysis.client0.app[0] rcvdPkLifetime:vector ETV
attr interpolationmode none
attr recordingmode vector
attr source dataAge(packetReceived)
attr title "received packet lifetime"
attr unit s
vector 144 Wifi6McsAnalysis.client0.app[0] rcvdPkSeqNo:vector ETV
attr interpolationmode none
attr recordingmode vector
attr source appPkSeqNo(packetReceived)
attr title "received packet sequence number"
vector 145 Wifi6McsAnalysis.client1.lo[0].lo rcvdPkFromHl:vector(packetBytes) ETV
attr interpolationmode none
attr recordingmode vector(packetBytes)
attr source packetReceivedFromUpper
attr title "packets received from higher layer, packetBytes"
vector 146 Wifi6McsAnalysis.client1.lo[0].lo passedUpPk:vector(packetBytes) ETV
attr interpolationmode none
attr recordingmode vector(packetBytes)
attr source packetSentToUpper
attr title "packets passed to higher layer, packetBytes"
vector 147 Wifi6McsAnalysis.client1.lo[0] packetDropInterfaceDown:vector(packetBytes) ETV
attr interpolationmode none
attr recordingmode vector(packetBytes)
attr source packetDropReasonIsInterfaceDown(packetDropped)
attr title "packet drops: interface down, packetBytes"
vector 148 Wifi6McsAnalysis.client1.lo[0] packetDropNoCarrier:vector(packetBytes) ETV
attr interpolationmode none
attr recordingmode vector(packetBytes)
attr source packetDropReasonIsNoCarrier(packetDropped)
attr title "packet drops: no carrier, packetBytes"
vector 149 Wifi6McsAnalysis.client1.wlan[0].agent sentRequest:vector ETV
attr recordingmode vector
attr title "sent requests"
vector 150 Wifi6McsAnalysis.client1.wlan[0].agent acceptConfirm:vector ETV
attr recordingmode vector
attr title "accepted confirms"
vector 151 Wifi6McsAnalysis.client1.wlan[0].agent dropConfirm:vector ETV
attr recordingmode vector
attr title "dropped confirms"
vector 152 Wifi6McsAnalysis.client1.wlan[0].mac.dcf.channelAccess.pendingQueue queueLength:vector ETV
attr autoWarmupFilter false
attr interpolationmode sample-hold
attr recordingmode vector
attr source "warmup(atomic(constant0(packetPushEnded) + count(packetPushStarted) - count(packetPulled) - count(packetRemoved) - count(packetDropped)))"
attr title "queue length"
attr unit pk
vector 153 Wifi6McsAnalysis.client1.wlan[0].mac.dcf.channelAccess.pendingQueue queueBitLength:vector ETV
attr autoWarmupFilter false
attr interpolationmode sample-hold
attr recordingmode vector
attr source "warmup(atomic(constant0(packetPushEnded) + sum(packetLength(packetPushStarted)) - sum(packetLength(packetPulled)) - sum(packetLength(packetRemoved)) - sum(packetLength(packetDropped))))"
attr title "queue bit length"
attr unit b
vector 154 Wifi6McsAnalysis.client1.wlan[0].mac.dcf.channelAccess.pendingQueue queueingTime:vector ETV
attr interpolationmode none
attr recordingmode vector
attr source queueingTime(packetPulled)
attr title "queueing times"
attr unit s
vector 155 Wifi6McsAnalysis.client1.wlan[0].mac.dcf.channelAccess.pendingQueue incomingPacketLengths:vector ETV
attr interpolationmode none
attr recordingmode vector
attr source packetLength(packetPushStarted)
attr title "incoming packet lengths"
attr unit b
vector 156 Wifi6McsAnalysis.client1.wlan[0].mac.dcf.channelAccess.pendingQueue incomingDataRate:vector ETV
attr interpolationmode linear
attr recordingmode vector
attr source throughput(packetPushStarted)
attr title "incoming datarate"
attr unit bps
vector 157 Wifi6McsAnalysis.client1.wlan[0].mac.dcf.channelAccess.pendingQueue outgoingPacketLengths:vector ETV
attr interpolationmode none
attr recordingmode vector
attr source packetLength(packetPulled)
attr title "outgoing packet lengths"
attr unit b
vector 158 Wifi6McsAnalysis.client1.wlan[0].mac.dcf.channelAccess.pendingQueue outgoingDataRate:vector ETV
attr interpolationmode linear
attr recordingmode vector
attr source throughput(packetPulled)
attr title "outgoing datarate"
attr unit bps
vector 159 Wifi6McsAnalysis.client1.wlan[0].mac.dcf.channelAccess.pendingQueue droppedPacketLengthsQueueOverflow:vector ETV
attr interpolationmode none
attr recordingmode vector
attr source packetLength(packetDropReasonIsQueueOverflow(packetDropped))
attr title "dropped packet lengths: queue overflow"
attr unit b
vector 160 Wifi6McsAnalysis.client1.wlan[0].mac.dcf.channelAccess.pendingQueue flowQueueingTime:vector ETV
attr interpolationmode none
attr recordingmode vector
attr source queueingTime(demuxFlow(packetPulled))
attr title "flow queueing times"
attr unit s
vector 161 Wifi6McsAnalysis.client1.wlan[0].mac.dcf.channelAccess.pendingQueue flowIncomingDataRate:vector ETV
attr interpolationmode linear
attr recordingmode vector
attr source throughput(flowPacketLength(demuxFlow(packetPushStarted)))
attr title "flow specific incoming data rate"
attr unit bps
vector 162 Wifi6McsAnalysis.client1.wlan[0].mac.dcf.channelAccess.pendingQueue flowOutgoingDataRate:vector ETV
attr interpolationmode linear
attr recordingmode vector
attr source throughput(flowPacketLength(demuxFlow(packetPulled)))
attr title "flow specific outgoing data rate"
attr unit bps
vector 163 Wifi6McsAnalysis.client1.wlan[0].mac.dcf.channelAccess.inProgressFrames queueingTime:vector ETV
attr interpolationmode none
attr recordingmode vector
attr source queueingTime(packetDequeued)
attr title "queueing times"
vector 164 Wifi6McsAnalysis.client1.wlan[0].mac.dcf.channelAccess.inProgressFrames queueLength:vector ETV
attr autoWarmupFilter false
attr interpolationmode sample-hold
attr recordingmode vector
attr source "warmup(count(packetEnqueued) - count(packetDequeued))"
attr title "queue length"
vector 165 Wifi6McsAnalysis.client1.wlan[0].mac.dcf.channelAccess.contention backoffPeriodGenerated:vector ETV
attr interpolationmode none
attr recordingmode vector
attr title "backoff periods"
vector 166 Wifi6McsAnalysis.client1.wlan[0].mac.dcf.channelAccess.contention backoffActive:vector ETV
attr autoWarmupFilter false
attr interpolationmode sample-hold
attr recordingmode vector
attr source warmup(count(backoffStarted)-count(backoffStopped))
attr title "backoff active"
vector 167 Wifi6McsAnalysis.client1.wlan[0].mac.dcf.channelAccess.contention stateChanged:vector ETV
attr enum IDLE,DEFER,IFS_AND_BACKOFF
attr interpolationmode none
attr recordingmode vector
attr title "contention state changed"
attr type enum
vector 168 Wifi6McsAnalysis.client1.wlan[0].mac.dcf.recipientMacDataService packetDropDuplicateDetected:vector(packetBytes) ETV
attr interpolationmode none
attr recordingmode vector(packetBytes)
attr source packetDropReasonIsDuplicateDetected(packetDropped)
attr title "packet drops: duplicate detected, packetBytes"
vector 169 Wifi6McsAnalysis.client1.wlan[0].mac.dcf.recoveryProcedure contentionWindowChanged:vector ETV
attr interpolationmode sample-hold
attr recordingmode vector
attr title "contention window"
vector 170 Wifi6McsAnalysis.client1.wlan[0].mac.dcf packetSentToPeer:vector(packetBytes) ETV
attr interpolationmode none
attr recordingmode vector(packetBytes)
attr title "packets sent, packetBytes"
vector 171 Wifi6McsAnalysis.client1.wlan[0].mac.dcf packetSentToPeerUnicast:vector(packetBytes) ETV
attr interpolationmode none
attr recordingmode vector(packetBytes)
attr source ieee80211Unicast(packetSentToPeer)
attr title "packets sent: unicast, packetBytes"
vector 172 Wifi6McsAnalysis.client1.wlan[0].mac.dcf packetSentToPeerMulticast:vector(packetBytes) ETV
attr interpolationmode none
attr recordingmode vector(packetBytes)
attr source ieee80211Multicast(packetSentToPeer)
attr title "packets sent: multicast, packetBytes"
vector 173 Wifi6McsAnalysis.client1.wlan[0].mac.dcf packetSentToPeerBroadcast:vector(packetBytes) ETV
attr interpolationmode none
attr recordingmode vector(packetBytes)
attr source ieee80211Broadcast(packetSentToPeer)
attr title "packets sent: broadcast , packetBytes"
vector 174 Wifi6McsAnalysis.client1.wlan[0].mac.dcf packetSentToPeerWithRetry:vector(packetBytes) ETV
attr interpolationmode none
attr recordingmode vector(packetBytes)
attr source ieee80211Retry(packetSentToPeer)
attr title "packets sent: with retry, packetBytes"
vector 175 Wifi6McsAnalysis.client1.wlan[0].mac.dcf packetSentToPeerWithoutRetry:vector(packetBytes) ETV
attr interpolationmode none
attr recordingmode vector(packetBytes)
attr source ieee80211NotRetry(packetSentToPeer)
attr title "packets sent: without retry, packetBytes"
vector 176 Wifi6McsAnalysis.client1.wlan[0].mac.dcf packetReceivedFromPeer:vector(packetBytes) ETV
attr interpolationmode none
attr recordingmode vector(packetBytes)
attr title "packets received, packetBytes"
vector 177 Wifi6McsAnalysis.client1.wlan[0].mac.dcf packetReceivedFromPeerUnicast:vector(packetBytes) ETV
attr interpolationmode none
attr recordingmode vector(packetBytes)
attr source ieee80211Unicast(packetReceivedFromPeer)
attr title "packets received: unicast, packetBytes"
vector 178 Wifi6McsAnalysis.client1.wlan[0].mac.dcf packetReceivedFromPeerMulticast:vector(packetBytes) ETV
attr interpolationmode none
attr recordingmode vector(packetBytes)
attr source ieee80211Multicast(packetReceivedFromPeer)
attr title "packets received: multicast, packetBytes"
vector 179 Wifi6McsAnalysis.client1.wlan[0].mac.dcf packetReceivedFromPeerBroadcast:vector(packetBytes) ETV
attr interpolationmode none
attr recordingmode vector(packetBytes)
attr source ieee80211Broadcast(packetReceivedFromPeer)
attr title "packets received: broadcast, packetBytes"
vector 180 Wifi6McsAnalysis.client1.wlan[0].mac.dcf packetReceivedFromPeerWithRetry:vector(packetBytes) ETV
attr interpolationmode none
attr recordingmode vector(packetBytes)
attr source ieee80211Retry(packetReceivedFromPeer)
attr title "packets received: with retry, packetBytes"
vector 181 Wifi6McsAnalysis.client1.wlan[0].mac.dcf packetReceivedFromPeerWithoutRetry:vector(packetBytes) ETV
attr interpolationmode none
attr recordingmode vector(packetBytes)
attr source ieee80211NotRetry(packetReceivedFromPeer)
attr title "packets received: without retry, packetBytes"
vector 182 Wifi6McsAnalysis.client1.wlan[0].mac.dcf packetDrop:vector(packetBytes) ETV
attr interpolationmode none
attr recordingmode vector(packetBytes)
attr source packetDropped
attr title "packet drops, packetBytes"
vector 183 Wifi6McsAnalysis.client1.wlan[0].mac.dcf packetDropNotAddressedToUs:vector(packetBytes) ETV
attr interpolationmode none
attr recordingmode vector(packetBytes)
attr source packetDropReasonIsNotAddressedToUs(packetDropped)
attr title "packet drops: not addressed to us, packetBytes"
vector 184 Wifi6McsAnalysis.client1.wlan[0].mac.dcf packetDropQueueOverflow:vector(packetBytes) ETV
attr interpolationmode none
attr recordingmode vector(packetBytes)
attr source packetDropReasonIsQueueOverflow(packetDropped)
attr title "packet drops: queue overflow, packetBytes"
vector 185 Wifi6McsAnalysis.client1.wlan[0].mac.dcf packetDropRetryLimitReached:vector(packetBytes) ETV
attr interpolationmode none
attr recordingmode vector(packetBytes)
attr source packetDropReasonIsRetryLimitReached(packetDropped)
attr title "packet drops: retry limit reached, packetBytes"
vector 186 Wifi6McsAnalysis.client1.wlan[0].mac.dcf frameSequenceActive:vector ETV
attr autoWarmupFilter false
attr interpolationmode sample-hold
attr recordingmode vector
attr source warmup(count(frameSequenceStarted)-count(frameSequenceFinished))
attr title "frame sequence active"
vector 187 Wifi6McsAnalysis.client1.wlan[0].mac.dcf datarateSelected:vector ETV
attr interpolationmode none
attr recordingmode vector
attr title "datarates selected"
vector 188 Wifi6McsAnalysis.client1.wlan[0].mac.rx nav:vector ETV
attr interpolationmode linear
attr recordingmode vector
attr source navChanged
attr title "network allocation vector"
vector 189 Wifi6McsAnalysis.client1.wlan[0].mac packetSentToUpper:vector(packetBytes) ETV
attr interpolationmode none
attr recordingmode vector(packetBytes)
attr title "packets sent to upper layer, packetBytes"
vector 190 Wifi6McsAnalysis.client1.wlan[0].mac packetSentToLower:vector(packetBytes) ETV
attr interpolationmode none
attr recordingmode vector(packetBytes)
attr title "packets sent to lower layer, packetBytes"
vector 191 Wifi6McsAnalysis.client1.wlan[0].mac packetReceivedFromUpper:vector(packetBytes) ETV
attr interpolationmode none
attr recordingmode vector(packetBytes)
attr title "packets received from upper layer, packetBytes"
vector 192 Wifi6McsAnalysis.client1.wlan[0].mac packetReceivedFromLower:vector(packetBytes) ETV
attr interpolationmode none
attr recordingmode vector(packetBytes)
attr title "packets received from lower layer, packetBytes"
vector 193 Wifi6McsAnalysis.client1.wlan[0].mac packetDrop:vector(packetBytes) ETV
attr interpolationmode none
attr recordingmode vector(packetBytes)
attr source packetDropped
attr title "packet drops, packetBytes"
vector 194 Wifi6McsAnalysis.client1.wlan[0].mac packetDropIncorrectlyReceived:vector(packetBytes) ETV
attr interpolationmode none
attr recordingmode vector(packetBytes)
attr source packetDropReasonIsIncorrectlyReceived(packetDropped)
attr title "packet drops: incorrectly received, packetBytes"
vector 195 Wifi6McsAnalysis.client1.wlan[0].mac packetDropNotAddressedToUs:vector(packetBytes) ETV
attr interpolationmode none
attr recordingmode vector(packetBytes)
attr source packetDropReasonIsNotAddressedToUs(packetDropped)
attr title "packet drops: not addressed to us, packetBytes"
vector 196 Wifi6McsAnalysis.client1.wlan[0].mac packetDropQueueOverflow:vector(packetBytes) ETV
attr interpolationmode none
attr recordingmode vector(packetBytes)
attr source packetDropReasonIsQueueOverflow(packetDropped)
attr title "packet drops: queue overflow, packetBytes"
vector 197 Wifi6McsAnalysis.client1.wlan[0].mac packetDropRetryLimitReached:vector(packetBytes) ETV
attr interpolationmode none
attr recordingmode vector(packetBytes)
attr source packetDropReasonIsRetryLimitReached(packetDropped)
attr title "packet drops: retry limit reached, packetBytes"
vector 198 Wifi6McsAnalysis.client1.wlan[0].mac packetDropDuplicateDetected:vector(packetBytes) ETV
attr interpolationmode none
attr recordingmode vector(packetBytes)
attr source packetDropReasonIsDuplicateDetected(packetDropped)
attr title "packet drops: duplicate detected, packetBytes"
vector 199 Wifi6McsAnalysis.client1.wlan[0].mac packetDropOther:vector(packetBytes) ETV
attr interpolationmode none
attr recordingmode vector(packetBytes)
attr source packetDropReasonIsOther(packetDropped)
attr title "packet drops: other, packetBytes"
vector 200 Wifi6McsAnalysis.client1.wlan[0].radio radioMode:vector ETV
attr interpolationmode sample-hold
attr recordingmode vector
attr source radioModeChanged
attr title "Radio mode"
vector 201 Wifi6McsAnalysis.client1.wlan[0].radio receptionState:vector ETV
attr interpolationmode sample-hold
attr recordingmode vector
attr source receptionStateChanged
attr title "Radio reception state"
vector 202 Wifi6McsAnalysis.client1.wlan[0].radio transmissionState:vector ETV
attr interpolationmode sample-hold
attr recordingmode vector
attr source transmissionStateChanged
attr title "Radio transmission state"
vector 203 Wifi6McsAnalysis.client1.wlan[0].radio radioChannel:vector ETV
attr interpolationmode sample-hold
attr recordingmode vector
attr source radioChannelChanged
attr title "Radio channel"
vector 204 Wifi6McsAnalysis.client1.wlan[0] packetDropInterfaceDown:vector(packetBytes) ETV
attr interpolationmode none
attr recordingmode vector(packetBytes)
attr source packetDropReasonIsInterfaceDown(packetDropped)
attr title "packet drops: interface down, packetBytes"
vector 205 Wifi6McsAnalysis.client1.wlan[0] packetDropNoCarrier:vector(packetBytes) ETV
attr interpolationmode none
attr recordingmode vector(packetBytes)
attr source packetDropReasonIsNoCarrier(packetDropped)
attr title "packet drops: no carrier, packetBytes"
vector 206 Wifi6McsAnalysis.client1.ipv4.ip packetDropAddressResolutionFailed:vector(packetBytes) ETV
attr interpolationmode none
attr recordingmode vector(packetBytes)
attr source packetDropReasonIsAddressResolutionFailed(packetDropped)
attr title "packet drop: address resolution failed, packetBytes"
vector 207 Wifi6McsAnalysis.client1.ipv4.ip packetDropHopLimitReached:vector(packetBytes) ETV
attr interpolationmode none
attr recordingmode vector(packetBytes)
attr source packetDropReasonIsHopLimitReached(packetDropped)
attr title "packet drop: hop limit reached, packetBytes"
vector 208 Wifi6McsAnalysis.client1.ipv4.ip packetDropForwardingDisabled:vector(packetBytes) ETV
attr interpolationmode none
attr recordingmode vector(packetBytes)
attr source packetDropReasonIsForwardingDisabled(packetDropped)
attr title "packet drop: forwarding disabled, packetBytes"
vector 209 Wifi6McsAnalysis.client1.ipv4.ip packetDropNoInterfaceFound:vector(packetBytes) ETV
attr interpolationmode none
attr recordingmode vector(packetBytes)
attr source packetDropReasonIsNoInterfaceFound(packetDropped)
attr title "packet drop: no interface found, packetBytes"
vector 210 Wifi6McsAnalysis.client1.ipv4.ip packetDropNoRouteFound:vector(packetBytes) ETV
attr interpolationmode none
attr recordingmode vector(packetBytes)
attr source packetDropReasonIsNoRouteFound(packetDropped)
attr title "packet drop: no route found, packetBytes"
vector 211 Wifi6McsAnalysis.client1.ipv4.ip packetDropUndefined:vector(packetBytes) ETV
attr interpolationmode none
attr recordingmode vector(packetBytes)
attr source packetDropReasonIsUndefined(packetDropped)
attr title "packet drop: undefined, packetBytes"
vector 212 Wifi6McsAnalysis.client1.ipv4.arp arpRequestSent:vector(packetBytes) ETV
attr recordingmode vector(packetBytes)
attr source arpRequestSent
attr title "ARP request sent, packetBytes"
vector 213 Wifi6McsAnalysis.client1.ipv4.arp arpReplySent:vector(packetBytes) ETV
attr recordingmode vector(packetBytes)
attr source arpReplySent
attr title "ARP replies sent, packetBytes"
vector 214 Wifi6McsAnalysis.client1.udp packetSent:vector(packetBytes) ETV
attr interpolationmode none
attr recordingmode vector(packetBytes)
attr source packetSent
attr title "packets sent, packetBytes"
vector 215 Wifi6McsAnalysis.client1.udp packetReceived:vector(packetBytes) ETV
attr interpolationmode none
attr recordingmode vector(packetBytes)
attr source packetReceived
attr title "packets received, packetBytes"
vector 216 Wifi6McsAnalysis.client1.udp passedUpPk:vector(count) ETV
attr interpolationmode none
attr recordingmode vector(count)
attr source packetSentToUpper
attr title "packets passed up, count"
vector 217 Wifi6McsAnalysis.client1.udp droppedPkWrongPort:vector(count) ETV
attr interpolationmode none
attr recordingmode vector(count)
attr source packetDropReasonIsNoPortFound(packetDropped)
attr title "packets dropped (wrong port), count"
vector 218 Wifi6McsAnalysis.client1.udp droppedPkBadChecksum:vector(count) ETV
attr interpolationmode none
attr recordingmode vector(count)
attr source packetDropReasonIsIncorrectlyReceived(packetDropped)
attr title "packets dropped (checksum error), count"
vector 219 Wifi6McsAnalysis.client1.app[0] packetReceived:vector(packetBytes) ETV
attr interpolationmode none
attr recordingmode vector(packetBytes)
attr source packetReceived
attr title "packets received, packetBytes"
vector 220 Wifi6McsAnalysis.client1.app[0] throughput:vector ETV
attr recordingmode vector
attr source throughput(packetReceived)
attr title throughput
attr unit bps
vector 221 Wifi6McsAnalysis.client1.app[0] packetSent:vector(packetBytes) ETV
attr interpolationmode none
attr recordingmode vector(packetBytes)
attr source packetSent
attr title "packets sent, packetBytes"
vector 222 Wifi6McsAnalysis.client1.app[0] rcvdPkLifetime:vector ETV
attr interpolationmode none
attr recordingmode vector
attr source dataAge(packetReceived)
attr title "received packet lifetime"
attr unit s
vector 223 Wifi6McsAnalysis.client1.app[0] rcvdPkSeqNo:vector ETV
attr interpolationmode none
attr recordingmode vector
attr source appPkSeqNo(packetReceived)
attr title "received packet sequence number"
vector 224 Wifi6McsAnalysis.client2.lo[0].lo rcvdPkFromHl:vector(packetBytes) ETV
attr interpolationmode none
attr recordingmode vector(packetBytes)
attr source packetReceivedFromUpper
attr title "packets received from higher layer, packetBytes"
vector 225 Wifi6McsAnalysis.client2.lo[0].lo passedUpPk:vector(packetBytes) ETV
attr interpolationmode none
attr recordingmode vector(packetBytes)
attr source packetSentToUpper
attr title "packets passed to higher layer, packetBytes"
vector 226 Wifi6McsAnalysis.client2.lo[0] packetDropInterfaceDown:vector(packetBytes) ETV
attr interpolationmode none
attr recordingmode vector(packetBytes)
attr source packetDropReasonIsInterfaceDown(packetDropped)
attr title "packet drops: interface down, packetBytes"
vector 227 Wifi6McsAnalysis.client2.lo[0] packetDropNoCarrier:vector(packetBytes) ETV
attr interpolationmode none
attr recordingmode vector(packetBytes)
attr source packetDropReasonIsNoCarrier(packetDropped)
attr title "packet drops: no carrier, packetBytes"
vector 228 Wifi6McsAnalysis.client2.wlan[0].agent sentRequest:vector ETV
attr recordingmode vector
attr title "sent requests"
vector 229 Wifi6McsAnalysis.client2.wlan[0].agent acceptConfirm:vector ETV
attr recordingmode vector
attr title "accepted confirms"
vector 230 Wifi6McsAnalysis.client2.wlan[0].agent dropConfirm:vector ETV
attr recordingmode vector
attr title "dropped confirms"
vector 231 Wifi6McsAnalysis.client2.wlan[0].mac.dcf.channelAccess.pendingQueue queueLength:vector ETV
attr autoWarmupFilter false
attr interpolationmode sample-hold
attr recordingmode vector
attr source "warmup(atomic(constant0(packetPushEnded) + count(packetPushStarted) - count(packetPulled) - count(packetRemoved) - count(packetDropped)))"
attr title "queue length"
attr unit pk
vector 232 Wifi6McsAnalysis.client2.wlan[0].mac.dcf.channelAccess.pendingQueue queueBitLength:vector ETV
attr autoWarmupFilter false
attr interpolationmode sample-hold
attr recordingmode vector
attr source "warmup(atomic(constant0(packetPushEnded) + sum(packetLength(packetPushStarted)) - sum(packetLength(packetPulled)) - sum(packetLength(packetRemoved)) - sum(packetLength(packetDropped))))"
attr title "queue bit length"
attr unit b
vector 233 Wifi6McsAnalysis.client2.wlan[0].mac.dcf.channelAccess.pendingQueue queueingTime:vector ETV
attr interpolationmode none
attr recordingmode vector
attr source queueingTime(packetPulled)
attr title "queueing times"
attr unit s
vector 234 Wifi6McsAnalysis.client2.wlan[0].mac.dcf.channelAccess.pendingQueue incomingPacketLengths:vector ETV
attr interpolationmode none
attr recordingmode vector
attr source packetLength(packetPushStarted)
attr title "incoming packet lengths"
attr unit b
vector 235 Wifi6McsAnalysis.client2.wlan[0].mac.dcf.channelAccess.pendingQueue incomingDataRate:vector ETV
attr interpolationmode linear
attr recordingmode vector
attr source throughput(packetPushStarted)
attr title "incoming datarate"
attr unit bps
vector 236 Wifi6McsAnalysis.client2.wlan[0].mac.dcf.channelAccess.pendingQueue outgoingPacketLengths:vector ETV
attr interpolationmode none
attr recordingmode vector
attr source packetLength(packetPulled)
attr title "outgoing packet lengths"
attr unit b
vector 237 Wifi6McsAnalysis.client2.wlan[0].mac.dcf.channelAccess.pendingQueue outgoingDataRate:vector ETV
attr interpolationmode linear
attr recordingmode vector
attr source throughput(packetPulled)
attr title "outgoing datarate"
attr unit bps
vector 238 Wifi6McsAnalysis.client2.wlan[0].mac.dcf.channelAccess.pendingQueue droppedPacketLengthsQueueOverflow:vector ETV
attr interpolationmode none
attr recordingmode vector
attr source packetLength(packetDropReasonIsQueueOverflow(packetDropped))
attr title "dropped packet lengths: queue overflow"
attr unit b
vector 239 Wifi6McsAnalysis.client2.wlan[0].mac.dcf.channelAccess.pendingQueue flowQueueingTime:vector ETV
attr interpolationmode none
attr recordingmode vector
attr source queueingTime(demuxFlow(packetPulled))
attr title "flow queueing times"
attr unit s
vector 240 Wifi6McsAnalysis.client2.wlan[0].mac.dcf.channelAccess.pendingQueue flowIncomingDataRate:vector ETV
attr interpolationmode linear
attr recordingmode vector
attr source throughput(flowPacketLength(demuxFlow(packetPushStarted)))
attr title "flow specific incoming data rate"
attr unit bps
vector 241 Wifi6McsAnalysis.client2.wlan[0].mac.dcf.channelAccess.pendingQueue flowOutgoingDataRate:vector ETV
attr interpolationmode linear
attr recordingmode vector
attr source throughput(flowPacketLength(demuxFlow(packetPulled)))
attr title "flow specific outgoing data rate"
attr unit bps
vector 242 Wifi6McsAnalysis.client2.wlan[0].mac.dcf.channelAccess.inProgressFrames queueingTime:vector ETV
attr interpolationmode none
attr recordingmode vector
attr source queueingTime(packetDequeued)
attr title "queueing times"
vector 243 Wifi6McsAnalysis.client2.wlan[0].mac.dcf.channelAccess.inProgressFrames queueLength:vector ETV
attr autoWarmupFilter false
attr interpolationmode sample-hold
attr recordingmode vector
attr source "warmup(count(packetEnqueued) - count(packetDequeued))"
attr title "queue length"
vector 244 Wifi6McsAnalysis.client2.wlan[0].mac.dcf.channelAccess.contention backoffPeriodGenerated:vector ETV
attr interpolationmode none
attr recordingmode vector
attr title "backoff periods"
vector 245 Wifi6McsAnalysis.client2.wlan[0].mac.dcf.channelAccess.contention backoffActive:vector ETV
attr autoWarmupFilter false
attr interpolationmode sample-hold
attr recordingmode vector
attr source warmup(count(backoffStarted)-count(backoffStopped))
attr title "backoff active"
vector 246 Wifi6McsAnalysis.client2.wlan[0].mac.dcf.channelAccess.contention stateChanged:vector ETV
attr enum IDLE,DEFER,IFS_AND_BACKOFF
attr interpolationmode none
attr recordingmode vector
attr title "contention state changed"
attr type enum
vector 247 Wifi6McsAnalysis.client2.wlan[0].mac.dcf.recipientMacDataService packetDropDuplicateDetected:vector(packetBytes) ETV
attr interpolationmode none
attr recordingmode vector(packetBytes)
attr source packetDropReasonIsDuplicateDetected(packetDropped)
attr title "packet drops: duplicate detected, packetBytes"
vector 248 Wifi6McsAnalysis.client2.wlan[0].mac.dcf.recoveryProcedure contentionWindowChanged:vector ETV
attr interpolationmode sample-hold
attr recordingmode vector
attr title "contention window"
vector 249 Wifi6McsAnalysis.client2.wlan[0].mac.dcf packetSentToPeer:vector(packetBytes) ETV
attr interpolationmode none
attr recordingmode vector(packetBytes)
attr title "packets sent, packetBytes"
vector 250 Wifi6McsAnalysis.client2.wlan[0].mac.dcf packetSentToPeerUnicast:vector(packetBytes) ETV
attr interpolationmode none
attr recordingmode vector(packetBytes)
attr source ieee80211Unicast(packetSentToPeer)
attr title "packets sent: unicast, packetBytes"
vector 251 Wifi6McsAnalysis.client2.wlan[0].mac.dcf packetSentToPeerMulticast:vector(packetBytes) ETV
attr interpolationmode none
attr recordingmode vector(packetBytes)
attr source ieee80211Multicast(packetSentToPeer)
attr title "packets sent: multicast, packetBytes"
vector 252 Wifi6McsAnalysis.client2.wlan[0].mac.dcf packetSentToPeerBroadcast:vector(packetBytes) ETV
attr interpolationmode none
attr recordingmode vector(packetBytes)
attr source ieee80211Broadcast(packetSentToPeer)
attr title "packets sent: broadcast , packetBytes"
vector 253 Wifi6McsAnalysis.client2.wlan[0].mac.dcf packetSentToPeerWithRetry:vector(packetBytes) ETV
attr interpolationmode none
attr recordingmode vector(packetBytes)
attr source ieee80211Retry(packetSentToPeer)
attr title "packets sent: with retry, packetBytes"
vector 254 Wifi6McsAnalysis.client2.wlan[0].mac.dcf packetSentToPeerWithoutRetry:vector(packetBytes) ETV
attr interpolationmode none
attr recordingmode vector(packetBytes)
attr source ieee80211NotRetry(packetSentToPeer)
attr title "packets sent: without retry, packetBytes"
vector 255 Wifi6McsAnalysis.client2.wlan[0].mac.dcf packetReceivedFromPeer:vector(packetBytes) ETV
attr interpolationmode none
attr recordingmode vector(packetBytes)
attr title "packets received, packetBytes"
vector 256 Wifi6McsAnalysis.client2.wlan[0].mac.dcf packetReceivedFromPeerUnicast:vector(packetBytes) ETV
attr interpolationmode none
attr recordingmode vector(packetBytes)
attr source ieee80211Unicast(packetReceivedFromPeer)
attr title "packets received: unicast, packetBytes"
vector 257 Wifi6McsAnalysis.client2.wlan[0].mac.dcf packetReceivedFromPeerMulticast:vector(packetBytes) ETV
attr interpolationmode none
attr recordingmode vector(packetBytes)
attr source ieee80211Multicast(packetReceivedFromPeer)
attr title "packets received: multicast, packetBytes"
vector 258 Wifi6McsAnalysis.client2.wlan[0].mac.dcf packetReceivedFromPeerBroadcast:vector(packetBytes) ETV
attr interpolationmode none
attr recordingmode vector(packetBytes)
attr source ieee80211Broadcast(packetReceivedFromPeer)
attr title "packets received: broadcast, packetBytes"
vector 259 Wifi6McsAnalysis.client2.wlan[0].mac.dcf packetReceivedFromPeerWithRetry:vector(packetBytes) ETV
attr interpolationmode none
attr recordingmode vector(packetBytes)
attr source ieee80211Retry(packetReceivedFromPeer)
attr title "packets received: with retry, packetBytes"
vector 260 Wifi6McsAnalysis.client2.wlan[0].mac.dcf packetReceivedFromPeerWithoutRetry:vector(packetBytes) ETV
attr interpolationmode none
attr recordingmode vector(packetBytes)
attr source ieee80211NotRetry(packetReceivedFromPeer)
attr title "packets received: without retry, packetBytes"
vector 261 Wifi6McsAnalysis.client2.wlan[0].mac.dcf packetDrop:vector(packetBytes) ETV
attr interpolationmode none
attr recordingmode vector(packetBytes)
attr source packetDropped
attr title "packet drops, packetBytes"
vector 262 Wifi6McsAnalysis.client2.wlan[0].mac.dcf packetDropNotAddressedToUs:vector(packetBytes) ETV
attr interpolationmode none
attr recordingmode vector(packetBytes)
attr source packetDropReasonIsNotAddressedToUs(packetDropped)
attr title "packet drops: not addressed to us, packetBytes"
vector 263 Wifi6McsAnalysis.client2.wlan[0].mac.dcf packetDropQueueOverflow:vector(packetBytes) ETV
attr interpolationmode none
attr recordingmode vector(packetBytes)
attr source packetDropReasonIsQueueOverflow(packetDropped)
attr title "packet drops: queue overflow, packetBytes"
vector 264 Wifi6McsAnalysis.client2.wlan[0].mac.dcf packetDropRetryLimitReached:vector(packetBytes) ETV
attr interpolationmode none
attr recordingmode vector(packetBytes)
attr source packetDropReasonIsRetryLimitReached(packetDropped)
attr title "packet drops: retry limit reached, packetBytes"
vector 265 Wifi6McsAnalysis.client2.wlan[0].mac.dcf frameSequenceActive:vector ETV
attr autoWarmupFilter false
attr interpolationmode sample-hold
attr recordingmode vector
attr source warmup(count(frameSequenceStarted)-count(frameSequenceFinished))
attr title "frame sequence active"
vector 266 Wifi6McsAnalysis.client2.wlan[0].mac.dcf datarateSelected:vector ETV
attr interpolationmode none
attr recordingmode vector
attr title "datarates selected"
vector 267 Wifi6McsAnalysis.client2.wlan[0].mac.rx nav:vector ETV
attr interpolationmode linear
attr recordingmode vector
attr source navChanged
attr title "network allocation vector"
vector 268 Wifi6McsAnalysis.client2.wlan[0].mac packetSentToUpper:vector(packetBytes) ETV
attr interpolationmode none
attr recordingmode vector(packetBytes)
attr title "packets sent to upper layer, packetBytes"
vector 269 Wifi6McsAnalysis.client2.wlan[0].mac packetSentToLower:vector(packetBytes) ETV
attr interpolationmode none
attr recordingmode vector(packetBytes)
attr title "packets sent to lower layer, packetBytes"
vector 270 Wifi6McsAnalysis.client2.wlan[0].mac packetReceivedFromUpper:vector(packetBytes) ETV
attr interpolationmode none
attr recordingmode vector(packetBytes)
attr title "packets received from upper layer, packetBytes"
vector 271 Wifi6McsAnalysis.client2.wlan[0].mac packetReceivedFromLower:vector(packetBytes) ETV
attr interpolationmode none
attr recordingmode vector(packetBytes)
attr title "packets received from lower layer, packetBytes"
vector 272 Wifi6McsAnalysis.client2.wlan[0].mac packetDrop:vector(packetBytes) ETV
attr interpolationmode none
attr recordingmode vector(packetBytes)
attr source packetDropped
attr title "packet drops, packetBytes"
vector 273 Wifi6McsAnalysis.client2.wlan[0].mac packetDropIncorrectlyReceived:vector(packetBytes) ETV
attr interpolationmode none
attr recordingmode vector(packetBytes)
attr source packetDropReasonIsIncorrectlyReceived(packetDropped)
attr title "packet drops: incorrectly received, packetBytes"
vector 274 Wifi6McsAnalysis.client2.wlan[0].mac packetDropNotAddressedToUs:vector(packetBytes) ETV
attr interpolationmode none
attr recordingmode vector(packetBytes)
attr source packetDropReasonIsNotAddressedToUs(packetDropped)
attr title "packet drops: not addressed to us, packetBytes"
vector 275 Wifi6McsAnalysis.client2.wlan[0].mac packetDropQueueOverflow:vector(packetBytes) ETV
attr interpolationmode none
attr recordingmode vector(packetBytes)
attr source packetDropReasonIsQueueOverflow(packetDropped)
attr title "packet drops: queue overflow, packetBytes"
vector 276 Wifi6McsAnalysis.client2.wlan[0].mac packetDropRetryLimitReached:vector(packetBytes) ETV
attr interpolationmode none
attr recordingmode vector(packetBytes)
attr source packetDropReasonIsRetryLimitReached(packetDropped)
attr title "packet drops: retry limit reached, packetBytes"
vector 277 Wifi6McsAnalysis.client2.wlan[0].mac packetDropDuplicateDetected:vector(packetBytes) ETV
attr interpolationmode none
attr recordingmode vector(packetBytes)
attr source packetDropReasonIsDuplicateDetected(packetDropped)
attr title "packet drops: duplicate detected, packetBytes"
vector 278 Wifi6McsAnalysis.client2.wlan[0].mac packetDropOther:vector(packetBytes) ETV
attr interpolationmode none
attr recordingmode vector(packetBytes)
attr source packetDropReasonIsOther(packetDropped)
attr title "packet drops: other, packetBytes"
vector 279 Wifi6McsAnalysis.client2.wlan[0].radio radioMode:vector ETV
attr interpolationmode sample-hold
attr recordingmode vector
attr source radioModeChanged
attr title "Radio mode"
vector 280 Wifi6McsAnalysis.client2.wlan[0].radio receptionState:vector ETV
attr interpolationmode sample-hold
attr recordingmode vector
attr source receptionStateChanged
attr title "Radio reception state"
vector 281 Wifi6McsAnalysis.client2.wlan[0].radio transmissionState:vector ETV
attr interpolationmode sample-hold
attr recordingmode vector
attr source transmissionStateChanged
attr title "Radio transmission state"
vector 282 Wifi6McsAnalysis.client2.wlan[0].radio radioChannel:vector ETV
attr interpolationmode sample-hold
attr recordingmode vector
attr source radioChannelChanged
attr title "Radio channel"
vector 283 Wifi6McsAnalysis.client2.wlan[0] packetDropInterfaceDown:vector(packetBytes) ETV
attr interpolationmode none
attr recordingmode vector(packetBytes)
attr source packetDropReasonIsInterfaceDown(packetDropped)
attr title "packet drops: interface down, packetBytes"
vector 284 Wifi6McsAnalysis.client2.wlan[0] packetDropNoCarrier:vector(packetBytes) ETV
attr interpolationmode none
attr recordingmode vector(packetBytes)
attr source packetDropReasonIsNoCarrier(packetDropped)
attr title "packet drops: no carrier, packetBytes"
vector 285 Wifi6McsAnalysis.client2.ipv4.ip packetDropAddressResolutionFailed:vector(packetBytes) ETV
attr interpolationmode none
attr recordingmode vector(packetBytes)
attr source packetDropReasonIsAddressResolutionFailed(packetDropped)
attr title "packet drop: address resolution failed, packetBytes"
vector 286 Wifi6McsAnalysis.client2.ipv4.ip packetDropHopLimitReached:vector(packetBytes) ETV
attr interpolationmode none
attr recordingmode vector(packetBytes)
attr source packetDropReasonIsHopLimitReached(packetDropped)
attr title "packet drop: hop limit reached, packetBytes"
vector 287 Wifi6McsAnalysis.client2.ipv4.ip packetDropForwardingDisabled:vector(packetBytes) ETV
attr interpolationmode none
attr recordingmode vector(packetBytes)
attr source packetDropReasonIsForwardingDisabled(packetDropped)
attr title "packet drop: forwarding disabled, packetBytes"
vector 288 Wifi6McsAnalysis.client2.ipv4.ip packetDropNoInterfaceFound:vector(packetBytes) ETV
attr interpolationmode none
attr recordingmode vector(packetBytes)
attr source packetDropReasonIsNoInterfaceFound(packetDropped)
attr title "packet drop: no interface found, packetBytes"
vector 289 Wifi6McsAnalysis.client2.ipv4.ip packetDropNoRouteFound:vector(packetBytes) ETV
attr interpolationmode none
attr recordingmode vector(packetBytes)
attr source packetDropReasonIsNoRouteFound(packetDropped)
attr title "packet drop: no route found, packetBytes"
vector 290 Wifi6McsAnalysis.client2.ipv4.ip packetDropUndefined:vector(packetBytes) ETV
attr interpolationmode none
attr recordingmode vector(packetBytes)
attr source packetDropReasonIsUndefined(packetDropped)
attr title "packet drop: undefined, packetBytes"
vector 291 Wifi6McsAnalysis.client2.ipv4.arp arpRequestSent:vector(packetBytes) ETV
attr recordingmode vector(packetBytes)
attr source arpRequestSent
attr title "ARP request sent, packetBytes"
vector 292 Wifi6McsAnalysis.client2.ipv4.arp arpReplySent:vector(packetBytes) ETV
attr recordingmode vector(packetBytes)
attr source arpReplySent
attr title "ARP replies sent, packetBytes"
vector 293 Wifi6McsAnalysis.client2.udp packetSent:vector(packetBytes) ETV
attr interpolationmode none
attr recordingmode vector(packetBytes)
attr source packetSent
attr title "packets sent, packetBytes"
vector 294 Wifi6McsAnalysis.client2.udp packetReceived:vector(packetBytes) ETV
attr interpolationmode none
attr recordingmode vector(packetBytes)
attr source packetReceived
attr title "packets received, packetBytes"
vector 295 Wifi6McsAnalysis.client2.udp passedUpPk:vector(count) ETV
attr interpolationmode none
attr recordingmode vector(count)
attr source packetSentToUpper
attr title "packets passed up, count"
vector 296 Wifi6McsAnalysis.client2.udp droppedPkWrongPort:vector(count) ETV
attr interpolationmode none
attr recordingmode vector(count)
attr source packetDropReasonIsNoPortFound(packetDropped)
attr title "packets dropped (wrong port), count"
vector 297 Wifi6McsAnalysis.client2.udp droppedPkBadChecksum:vector(count) ETV
attr interpolationmode none
attr recordingmode vector(count)
attr source packetDropReasonIsIncorrectlyReceived(packetDropped)
attr title "packets dropped (checksum error), count"
vector 298 Wifi6McsAnalysis.client2.app[0] packetReceived:vector(packetBytes) ETV
attr interpolationmode none
attr recordingmode vector(packetBytes)
attr source packetReceived
attr title "packets received, packetBytes"
vector 299 Wifi6McsAnalysis.client2.app[0] throughput:vector ETV
attr recordingmode vector
attr source throughput(packetReceived)
attr title throughput
attr unit bps
vector 300 Wifi6McsAnalysis.client2.app[0] packetSent:vector(packetBytes) ETV
attr interpolationmode none
attr recordingmode vector(packetBytes)
attr source packetSent
attr title "packets sent, packetBytes"
vector 301 Wifi6McsAnalysis.client2.app[0] rcvdPkLifetime:vector ETV
attr interpolationmode none
attr recordingmode vector
attr source dataAge(packetReceived)
attr title "received packet lifetime"
attr unit s
vector 302 Wifi6McsAnalysis.client2.app[0] rcvdPkSeqNo:vector ETV
attr interpolationmode none
attr recordingmode vector
attr source appPkSeqNo(packetReceived)
attr title "received packet sequence number"
vector 303 Wifi6McsAnalysis.client3.lo[0].lo rcvdPkFromHl:vector(packetBytes) ETV
[...]
344	14690942 572 488429 618195 15.001 19.002611689468 22 0 1 11 11
345	14691514 356 488429 618123 15.001 19.002516197724 11 24000000 24000000 264000000 6.336e+15
346	14691870 5234 488553 618557 15.00105 19.00392782201 168 0 4.4e-05 0.002464 1.08416e-07
347	14697104 1387 488874 619151 15.001824134258 19.00812917778 45 36 36 1620 58320
348	14698491 290 488429 618123 15.001 19.002516197724 11 64 64 704 45056
349	14698781 110 488403 617302 15.001 19.001 5 36 36 180 6480
350	14698891 6268 469439 648835 14.380137821122 19.980137821122 203 14 64 9580 534344
351	14705159 2960 488775 618929 15.001578667128 19.00628917778 96 14 64 3894 217716
352	14708119 31 553685 553685 17.002701790644 17.002701790644 1 64 64 64 4096
353	14708150 2929 488775 618929 15.001578667128 19.00628917778 95 14 64 3830 213620
358	14711079 568 488430 618137 15.001 19.002566197724 22 2 3 55 143
359	14711647 12908 469416 648832 14.380091821122 19.980137821122 435 0 3 837 2069
360	14724555 1136 488430 618137 15.001 19.002566197724 44 0 2 44 66
364	14725691 144000 488353 585069 15.001 18.001 6000 1052 1052 6312000 6640224000
370	14869691 110 488383 617262 15.001 19.001 5 28 28 140 3920
372	14869801 135205 468219 649435 14.341 20 5660 1032 1032 5841120 6028035840
379	15005006 135181 468239 649425 14.342 20 5659 1024 1024 5794816 5933891584
389	15140187 210 488404 617341 15.001 19.001 10 0 1 5 5
390	15140397 220 488404 617341 15.001 19.001 10 0 512 2560 1310720
391	15140617 105 488432 617341 15.001 19.001 5 0 0 0 0
392	15140722 115 488404 617303 15.001 19.001 5 512 512 2560 1310720
394	15140837 115 488432 617341 15.001 19.001 5 512 512 2560 1310720
400	15140952 213 488836 618367 15.001624443208 19.003058108062 5 0.000624443208 0.004707260126 0.010863593474 3.4682308101169e-05
401	15141165 254 488432 618367 15.001 19.003058108062 10 0 1 5 5
402	15141419 263 488404 617594 15.001 19.001105 11 0 91 303 15205
403	15141682 4181 488404 618258 15.001 19.002961998418 144 0 1 72 72
404	15145863 25910 469420 648844 14.380092130072 19.980138130072 880 0 2 410 698
406	15171773 310 488685 618367 15.001105 19.003058108062 11 31 127 597 40779
407	15172083 305 488554 618302 15.00105 19.003011998418 11 64 64 704 45056
408	15172388 305 488554 618302 15.00105 19.003011998418 11 64 64 704 45056
411	15172693 185 488771 618302 15.001578333564 19.003011998418 6 64 64 384 24576
412	15172878 120 488554 617463 15.00105 19.00105 5 64 64 320 20480
413	15172998 3308 469449 648845 14.380138130072 19.980138130072 107 14 64 5686 316628
414	15176306 154 488836 618367 15.001624443208 19.003058108062 5 14 14 70 980
415	15176460 3154 469449 648845 14.380138130072 19.980138130072 102 48 64 5616 315648
416	15179614 3154 469449 648845 14.380138130072 19.980138130072 102 48 64 5616 315648
417	15182768 1387 489052 619163 15.002229110336 19.00812948673 45 64 64 2880 184320
418	15184155 1921 469449 648845 14.380138130072 19.980138130072 62 14 48 2806 132308
419	15186076 2960 488729 618997 15.001194333564 19.00690948673 96 14 64 3894 217716
420	15189036 2960 488729 618997 15.001194333564 19.00690948673 96 14 64 3894 217716
423	15191996 582 488432 618367 15.001 19.003058108062 22 0 1 11 11
424	15192578 361 488432 618259 15.001 19.002961998418 11 24000000 24000000 264000000 6.336e+15
425	15192939 5351 488554 618561 15.00105 19.003927960177 171 0 4.4e-05 0.002508 1.10352e-07
426	15198290 1387 489052 619163 15.002229110336 19.00812948673 45 36 36 1620 58320
427	15199677 295 488432 618259 15.001 19.002961998418 11 64 64 704 45056
428	15199972 110 488404 617303 15.001 19.001 5 36 36 180 6480
429	15200082 6268 469449 648845 14.380138130072 19.980138130072 203 14 64 9580 534344
430	15206350 2960 488729 618997 15.001194333564 19.00690948673 96 14 64 3894 217716
432	15209310 2960 488729 618997 15.001194333564 19.00690948673 96 14 64 3894 217716
437	15212270 578 488433 618303 15.001 19.003011998418 22 2 3 55 143
438	15212848 12912 469420 648844 14.380092130072 19.980138130072 435 0 3 837 2069
439	15225760 1156 488433 618303 15.001 19.003011998418 44 0 2 44 66
443	15226916 144000 488354 585070 15.001 18.001 6000 1052 1052 6312000 6640224000
449	15370916 110 488384 617263 15.001 19.001 5 28 28 140 3920
451	15371026 135205 468220 649436 14.341 20 5660 1032 1032 5841120 6028035840
458	15506231 135181 468240 649426 14.342 20 5659 1024 1024 5794816 5933891584
468	15641412 210 488405 617344 15.001 19.001 10 0 1 5 5
469	15641622 220 488405 617344 15.001 19.001 10 0 512 2560 1310720
470	15641842 105 488435 617344 15.001 19.001 5 0 0 0 0
471	15641947 115 488405 617304 15.001 19.001 5 512 512 2560 1310720
473	15642062 115 488435 617344 15.001 19.001 5 512 512 2560 1310720
479	15642177 213 489793 618444 15.004507298342 19.003423290856 5 0.000379491744 0.003507298342 0.009452192014 2.4350258337106e-05
480	15642390 254 488435 618444 15.001 19.003423290856 10 0 1 5 5
481	15642644 257 488405 617595 15.001 19.001105 11 0 78 267 11935
482	15642901 3864 488405 618370 15.001 19.003327799112 134 0 1 67 67
483	15646765 25838 469417 648833 14.380091821122 19.980137821122 880 0 2 380 648
485	15672603 305 488686 618444 15.001105 19.003423290856 11 31 127 597 40779
486	15672908 294 488555 618384 15.00105 19.003377799112 11 64 64 704 45056
487	15673202 294 488555 618384 15.00105 19.003377799112 11 64 64 704 45056
490	15673496 174 488720 618384 15.001194 19.003377799112 6 64 64 384 24576
491	15673670 120 488555 617464 15.00105 19.00105 5 64 64 320 20480
492	15673790 3308 469440 648836 14.380137821122 19.980137821122 107 14 64 5686 316628
493	15677098 154 489793 618444 15.004507298342 19.003423290856 5 14 14 70 980
494	15677252 3154 469440 648836 14.380137821122 19.980137821122 102 48 64 5616 315648
495	15680406 3154 469440 648836 14.380137821122 19.980137821122 102 48 64 5616 315648
496	15683560 1387 488875 619152 15.001824134258 19.00812917778 45 64 64 2880 184320
497	15684947 1921 469440 648836 14.380137821122 19.980137821122 62 14 48 2806 132308
498	15686868 2960 488793 619068 15.001579708884 19.00744917778 96 14 64 3894 217716
499	15689828 2960 488793 619068 15.001579708884 19.00744917778 96 14 64 3894 217716
502	15692788 566 488435 618444 15.001 19.003423290856 22 0 1 11 11
503	15693354 350 488435 618371 15.001 19.003327799112 11 24000000 24000000 264000000 6.336e+15
504	15693704 5312 488555 618566 15.00105 19.003928489138 171 0 4.4e-05 0.002508 1.10352e-07
505	15699016 1387 488875 619152 15.001824134258 19.00812917778 45 36 36 1620 58320
506	15700403 284 488435 618371 15.001 19.003327799112 11 64 64 704 45056
507	15700687 110 488405 617304 15.001 19.001 5 36 36 180 6480
508	15700797 6268 469440 648836 14.380137821122 19.980137821122 203 14 64 9580 534344
509	15707065 2960 488793 619068 15.001579708884 19.00744917778 96 14 64 3894 217716
511	15710025 2960 488793 619068 15.001579708884 19.00744917778 96 14 64 3894 217716
516	15712985 556 488436 618385 15.001 19.003377799112 22 2 3 55 143
517	15713541 12889 469417 648833 14.380091821122 19.980137821122 435 0 3 837 2069
518	15726430 1112 488436 618385 15.001 19.003377799112 44 0 2 44 66
522	15727542 144000 488355 585071 15.001 18.001 6000 1052 1052 6312000 6640224000
528	15871542 110 488385 617264 15.001 19.001 5 28 28 140 3920
530	15871652 135205 468221 649437 14.341 20 5660 1032 1032 5841120 6028035840
537	16006857 135181 468241 649427 14.342 20 5659 1024 1024 5794816 5933891584
547	16142038 210 488406 617347 15.001 19.001 10 0 1 5 5
548	16142248 220 488406 617347 15.001 19.001 10 0 512 2560 1310720
549	16142468 105 488438 617347 15.001 19.001 5 0 0 0 0
550	16142573 115 488406 617305 15.001 19.001 5 512 512 2560 1310720
552	16142688 115 488438 617347 15.001 19.001 5 512 512 2560 1310720
558	16142803 207 489486 618109 15.003516784392 19.00234611898 5 0.001055928334 0.002516784392 0.008214938468 1.5189022839787e-05
559	16143010 251 488438 618109 15.001 19.00234611898 10 0 1 5 5
560	16143261 234 488406 617596 15.001 19.001105 10 9 44 236 6820
561	16143495 3410 488406 618040 15.001 19.002250784724 118 0 1 59 59
562	16146905 25944 469415 648829 14.380091742378 19.980137742378 880 0 2 336 572
564	16172849 276 488687 618109 15.001105 19.00234611898 10 31 63 470 24650
565	16173125 275 488556 618054 15.00105 19.002300784724 10 64 64 640 40960
566	16173400 275 488556 618054 15.00105 19.002300784724 10 64 64 640 40960
569	16173675 155 489431 618054 15.003471450136 19.002300784724 5 64 64 320 20480
570	16173830 120 488556 617465 15.00105 19.00105 5 64 64 320 20480
571	16173950 3313 469434 648830 14.380137742378 19.980137742378 107 14 64 5686 316628
572	16177263 151 489486 618109 15.003516784392 19.00234611898 5 14 14 70 980
573	16177414 3162 469434 648830 14.380137742378 19.980137742378 102 48 64 5616 315648
574	16180576 3162 469434 648830 14.380137742378 19.980137742378 102 48 64 5616 315648
575	16183738 1395 488868 619145 15.001824055514 19.008129099036 45 64 64 2880 184320
576	16185133 1918 469434 648830 14.380137742378 19.980137742378 62 14 48 2806 132308
577	16187051 2930 488788 618839 15.001579388386 19.005569099036 95 14 64 3830 213620
578	16189981 2930 488788 618839 15.001579388386 19.005569099036 95 14 64 3830 213620
581	16192911 521 488438 618109 15.001 19.00234611898 20 0 1 10 10
582	16193432 325 488438 618041 15.001 19.002250784724 10 24000000 24000000 240000000 5.76e+15
583	16193757 5162 488556 618562 15.00105 19.003928155574 165 0 4.4e-05 0.00242 1.0648e-07
584	16198919 1395 488868 619145 15.001824055514 19.008129099036 45 36 36 1620 58320
585	16200314 265 488438 618041 15.001 19.002250784724 10 64 64 640 40960
586	16200579 110 488406 617305 15.001 19.001 5 36 36 180 6480
587	16200689 6304 469434 648830 14.380137742378 19.980137742378 204 14 64 9644 538440
588	16206993 2991 488732 618839 15.001194333564 19.005569099036 97 14 64 3958 221812
589	16209984 61 488732 553676 15.001194333564 17.00270134572 2 64 64 128 8192
590	16210045 2930 488788 618839 15.001579388386 19.005569099036 95 14 64 3830 213620
595	16212975 520 488439 618055 15.001 19.002300784724 20 2 3 50 130
596	16213495 12930 469415 648829 14.380091742378 19.980137742378 435 0 3 840 2078
597	16226425 1040 488439 618055 15.001 19.002300784724 40 0 2 40 60
601	16227465 144000 488356 585072 15.001 18.001 6000 1052 1052 6312000 6640224000
607	16371465 110 488386 617265 15.001 19.001 5 28 28 140 3920
609	16371575 135205 468222 649438 14.341 20 5660 1032 1032 5841120 6028035840
616	16506780 135181 468242 649428 14.342 20 5659 1024 1024 5794816 5933891584
626	16641961 210 488407 617350 15.001 19.001 10 0 1 5 5
627	16642171 220 488407 617350 15.001 19.001 10 0 512 2560 1310720
628	16642391 105 488441 617350 15.001 19.001 5 0 0 0 0
629	16642496 115 488407 617306 15.001 19.001 5 512 512 2560 1310720
631	16642611 115 488441 617350 15.001 19.001 5 512 512 2560 1310720
637	16642726 215 489216 617839 15.002980180054 19.001689514642 5 0.000565181078 0.002516929994 0.006356789256 1.1416914754171e-05
638	16642941 255 488441 617839 15.001 19.001689514642 10 0 1 5 5
639	16643196 233 488407 617597 15.001 19.001105 10 8 48 260 8258
640	16643429 2506 488407 617764 15.001 19.001594022898 88 0 1 44 44
641	16645935 25902 469418 648834 14.380091821122 19.980137821122 880 0 2 246 422
643	16671837 280 488688 617839 15.001105 19.001689514642 10 31 63 470 24650
644	16672117 273 488557 617778 15.00105 19.001644022898 10 64 64 640 40960
645	16672390 273 488557 617778 15.00105 19.001644022898 10 64 64 640 40960
648	16672663 153 489155 617778 15.00293468831 19.001644022898 5 64 64 320 20480
649	16672816 120 488557 617466 15.00105 19.00105 5 64 64 320 20480
650	16672936 3309 469441 648837 14.380137821122 19.980137821122 107 14 64 5686 316628
651	16676245 155 489216 617839 15.002980180054 19.001689514642 5 14 14 70 980
652	16676400 3154 469441 648837 14.380137821122 19.980137821122 102 48 64 5616 315648
653	16679554 3154 469441 648837 14.380137821122 19.980137821122 102 48 64 5616 315648
654	16682708 1387 488876 619153 15.001824134258 19.00812917778 45 64 64 2880 184320
655	16684095 1922 469441 648837 14.380137821122 19.980137821122 62 14 48 2806 132308
656	16686017 2928 488782 618655 15.001579079436 19.00436917778 95 14 64 3830 213620
657	16688945 2928 488782 618655 15.001579079436 19.00436917778 95 14 64 3830 213620
660	16691873 523 488441 617839 15.001 19.001689514642 20 0 1 10 10
661	16692396 323 488441 617765 15.001 19.001594022898 10 24000000 24000000 240000000 5.76e+15
662	16692719 5150 488557 618558 15.00105 19.00392782201 165 0 4.4e-05 0.00242 1.0648e-07
663	16697869 1387 488876 619153 15.001824134258 19.00812917778 45 36 36 1620 58320
664	16699256 263 488441 617765 15.001 19.001594022898 10 64 64 640 40960
665	16699519 110 488407 617306 15.001 19.001 5 36 36 180 6480
666	16699629 6299 469441 648837 14.380137821122 19.980137821122 204 14 64 9644 538440
667	16705928 2990 488736 618655 15.001194471731 19.00436917778 97 14 64 3958 221812
668	16708918 62 488736 553682 15.001194471731 17.002701619861 2 64 64 128 8192
669	16708980 2928 488782 618655 15.001579079436 19.00436917778 95 14 64 3830 213620
674	16711908 516 488442 617779 15.001 19.001644022898 20 2 3 50 130
675	16712424 12916 469418 648834 14.380091821122 19.980137821122 435 0 3 840 2078
676	16725340 1032 488442 617779 15.001 19.001644022898 40 0 2 40 60
680	16726372 144000 488357 585073 15.001 18.001 6000 1052 1052 6312000 6640224000
686	16870372 110 488387 617266 15.001 19.001 5 28 28 140 3920
688	16870482 135205 468223 649439 14.341 20 5660 1032 1032 5841120 6028035840
695	17005687 135181 468243 649429 14.342 20 5659 1024 1024 5794816 5933891584
705	17140868 210 488408 617353 15.001 19.001 10 0 1 5 5
706	17141078 220 488408 617353 15.001 19.001 10 0 512 2560 1310720
707	17141298 105 488444 617353 15.001 19.001 5 0 0 0 0
708	17141403 115 488408 617307 15.001 19.001 5 512 512 2560 1310720
710	17141518 115 488444 617353 15.001 19.001 5 512 512 2560 1310720
716	17141633 207 489136 618583 15.0027148859 19.00392937537 5 0.000259886924 0.002948506252 0.009434000166 2.2783958325893e-05
717	17141840 251 488444 618583 15.001 19.00392937537 10 0 1 5 5
718	17142091 232 488408 617598 15.001 19.001105 10 1 59 260 10284
719	17142323 3886 488408 618506 15.001 19.003833488446 134 0 1 67 67
720	17146209 25902 469419 648841 14.380092018712 19.980138018712 880 0 2 384 652
722	17172111 276 488689 618583 15.001105 19.00392937537 10 31 63 470 24650
723	17172387 269 488558 618520 15.00105 19.003883488446 10 64 64 640 40960
724	17172656 269 488558 618520 15.00105 19.003883488446 10 64 64 640 40960
727	17172925 149 489073 618520 15.002668998976 19.003883488446 5 64 64 320 20480
728	17173074 120 488558 617467 15.00105 19.00105 5 64 64 320 20480
729	17173194 3305 469446 648842 14.380138018712 19.980138018712 107 14 64 5686 316628
730	17176499 151 489136 618583 15.0027148859 19.00392937537 5 14 14 70 980
731	17176650 3154 469446 648842 14.380138018712 19.980138018712 102 48 64 5616 315648
732	17179804 3154 469446 648842 14.380138018712 19.980138018712 102 48 64 5616 315648
733	17182958 1387 488884 619075 15.001824331848 19.00744937537 45 64 64 2880 184320
734	17184345 1918 469446 648842 14.380138018712 19.980138018712 62 14 48 2806 132308
735	17186263 2934 488778 619161 15.001578805295 19.00812937537 95 14 64 3830 213620
736	17189197 2934 488778 619161 15.001578805295 19.00812937537 95 14 64 3830 213620
739	17192131 515 488444 618583 15.001 19.00392937537 20 0 1 10 10
740	17192646 319 488444 618507 15.001 19.003833488446 10 24000000 24000000 240000000 5.76e+15
741	17192965 5147 488558 618556 15.00105 19.003927488446 165 0 4.4e-05 0.00242 1.0648e-07
742	17198112 1387 488884 619075 15.001824331848 19.00744937537 45 36 36 1620 58320
743	17199499 259 488444 618507 15.001 19.003833488446 10 64 64 640 40960
744	17199758 110 488408 617307 15.001 19.001 5 36 36 180 6480
745	17199868 6301 469446 648842 14.380138018712 19.980138018712 204 14 64 9644 538440
746	17206169 2996 488730 619161 15.001194333564 19.00812937537 97 14 64 3958 221812
747	17209165 62 488730 553690 15.001194333564 17.002701928811 2 64 64 128 8192
748	17209227 2934 488778 619161 15.001578805295 19.00812937537 95 14 64 3830 213620
753	17212161 508 488445 618521 15.001 19.003883488446 20 2 3 50 130
754	17212669 12882 469419 648841 14.380092018712 19.980138018712 434 0 3 838 2074
755	17225551 1016 488445 618521 15.001 19.003883488446 40 0 2 40 60
759	17226567 144000 488358 585074 15.001 18.001 6000 1052 1052 6312000 6640224000
765	17370567 110 488388 617267 15.001 19.001 5 28 28 140 3920
767	17370677 135205 468224 649440 14.341 20 5660 1032 1032 5841120 6028035840
774	17505882 135181 468244 649430 14.342 20 5659 1024 1024 5794816 5933891584
784	17641063 210 488409 617356 15.001 19.001 10 0 1 5 5
785	17641273 220 488409 617356 15.001 19.001 10 0 512 2560 1310720
786	17641493 105 488447 617356 15.001 19.001 5 0 0 0 0
787	17641598 115 488409 617308 15.001 19.001 5 512 512 2560 1310720
789	17641713 115 488447 617356 15.001 19.001 5 512 512 2560 1310720
795	17641828 213 489416 618039 15.00335198569 19.002021320278 5 0.000240405364 0.002889024692 0.008514932032 1.9028122980856e-05
796	17642041 254 488447 618039 15.001 19.002021320278 10 0 1 5 5
797	17642295 232 488409 617599 15.001 19.001105 10 0 57 193 7019
798	17642527 3643 488409 617928 15.001 19.001924914914 126 0 1 63 63
799	17646170 25844 469421 648847 14.380092277932 19.980138277932 878 0 2 360 612
801	17672014 279 488690 618039 15.001105 19.002021320278 10 31 63 470 24650
802	17672293 269 488559 617942 15.00105 19.001974914914 10 64 64 640 40960
803	17672562 269 488559 617942 15.00105 19.001974914914 10 64 64 640 40960
806	17672831 149 489349 617942 15.003305580326 19.001974914914 5 64 64 320 20480
807	17672980 120 488559 617468 15.00105 19.00105 5 64 64 320 20480
808	17673100 3309 469452 648848 14.380138277932 19.980138277932 107 14 64 5686 316628
809	17676409 154 489416 618039 15.00335198569 19.002021320278 5 14 14 70 980
810	17676563 3155 469452 648848 14.380138277932 19.980138277932 102 48 64 5616 315648
811	17679718 3155 469452 648848 14.380138277932 19.980138277932 102 48 64 5616 315648
812	17682873 1388 488890 619167 15.001824591068 19.00812963459 45 64 64 2880 184320
813	17684261 1921 469452 648848 14.380138277932 19.980138277932 62 14 48 2806 132308
814	17686182 2962 488776 618779 15.001578667128 19.00490963459 96 14 64 3894 217716
815	17689144 2962 488776 618779 15.001578667128 19.00490963459 96 14 64 3894 217716
818	17692106 518 488447 618039 15.001 19.002021320278 20 0 1 10 10
819	17692624 319 488447 617929 15.001 19.001924914914 10 24000000 24000000 240000000 5.76e+15
820	17692943 5243 488559 618559 15.00105 19.00392782201 168 0 4.4e-05 0.002464 1.08416e-07
821	17698186 1388 488890 619167 15.001824591068 19.00812963459 45 36 36 1620 58320
822	17699574 259 488447 617929 15.001 19.001924914914 10 64 64 640 40960
823	17699833 110 488409 617308 15.001 19.001 5 36 36 180 6480
824	17699943 6302 469452 648848 14.380138277932 19.980138277932 204 14 64 9644 538440
825	17706245 2993 488737 618779 15.001194471731 19.00490963459 97 14 64 3958 221812
826	17709238 31 488737 488737 15.001194471731 15.001194471731 1 64 64 64 4096
827	17709269 2962 488776 618779 15.001578667128 19.00490963459 96 14 64 3894 217716
832	17712231 508 488448 617943 15.001 19.001974914914 20 2 3 50 130
833	17712739 12909 469421 648847 14.380092277932 19.980138277932 435 0 3 840 2078
834	17725648 1016 488448 617943 15.001 19.001974914914 40 0 2 40 60
838	17726664 144000 488359 585075 15.001 18.001 6000 1052 1052 6312000 6640224000
844	17870664 110 488389 617268 15.001 19.001 5 28 28 140 3920
846	17870774 135205 468225 649441 14.341 20 5660 1032 1032 5841120 6028035840
853	18005979 135181 468245 649431 14.342 20 5659 1024 1024 5794816 5933891584

