version 3
run General-0-20241203-17:24:50-21920
attr configname General
attr datetime 20241203-17:24:50
attr datetimef 20241203-172450
attr experiment General
attr inifile omnetpp.ini
attr iterationvars ""
attr iterationvarsd ""
attr iterationvarsf ""
attr measurement ""
attr network final.Wifi6McsAnalysis
attr processid 21920
attr repetition 0
attr replication #0
attr resultdir results
attr runnumber 0
attr seedset 0
config image-path ../../../../../Dev/inet4.5/images
config network final.Wifi6McsAnalysis
config sim-time-limit 20s
config **.recordScalar true
config **.recordVector true
config *.radioMedium.snirThreshold 20dB
config *.client*.wlan.radio.recordReceptionDecisions true
config *.client*.wlan.radio.recordSignalPower true
config *.client*.wlan.mac.mcsLevelLogging true
config *.client*.wlan.mac.throughputLogging true
config *.client*.wlan.radio.dynamicMcsEnabled true
config *.client*.wlan.radio.snrThresholds "\"15:0,25:4,35:8,40:11\""
config *.accessPoint.wlan.radio.recordReceptionDecisions true
config *.accessPoint.wlan.radio.recordSignalPower true
config **.client*.recordScalar true
config **.client*.recordVector true
config *.metricGenerator.throughput 50
config *.metricGenerator.latency 10
config *.metricGenerator.currentMcs 5
config *.client*.wlan.radio.channelNumber 36
config *.client*.wlan.radio.bandwidth 80MHz
config *.client*.numApps 1
config *.client*.app[0].typename UdpBasicApp
config *.client*.app[0].localPort 5000
config *.client*.app[0].destPort 5000
config *.client*.app[0].destAddresses "\"192.168.1.1\""
config *.client*.app[0].messageLength 1024B
config *.client*.app[0].sendInterval 1ms
config *.client*.app[0].recordPacketDelays true
config *.client*.app[0].recordThroughput true
config *.accessPoint.app[0].recordThroughput true
config *.accessPoint.app[0].recordPacketDelays true
config *.accessPoint.wlan.mac.qosStationEnabled true
config *.client*.wlan.mac.qosStationEnabled true
config *.accessPoint.wlan.mac.edca.defaultAifsn 2
config *.accessPoint.wlan.mac.edca.defaultCwmin 15
config *.accessPoint.wlan.mac.edca.defaultCwmax 1023
config *.client*.wlan.mac.edca.defaultAifsn 2
config *.client*.wlan.mac.edca.defaultCwmin 15
config *.client*.wlan.mac.edca.defaultCwmax 1023
config **.throughput.record true
config **.latency.record true
config **.currentMcs.record true
config output-vector-file results/Wifi6McsAnalysis.vec
config output-scalar-file results/Wifi6McsAnalysis.sca

par Wifi6McsAnalysis.visualizer.sceneVisualizer typename "\"inet.visualizer.canvas.scene.SceneCanvasVisualizer\""
par Wifi6McsAnalysis.visualizer.sceneVisualizer visualizationTargetModule "\"^.^\""
par Wifi6McsAnalysis.visualizer.sceneVisualizer visualizationSubjectModule "\"^.^\""
par Wifi6McsAnalysis.visualizer.sceneVisualizer tags "\"\""
par Wifi6McsAnalysis.visualizer.sceneVisualizer physicalEnvironmentModule "\"physicalEnvironment\""
par Wifi6McsAnalysis.visualizer.sceneVisualizer networkNodeVisualizerModule "\"^.networkNodeVisualizer\""
par Wifi6McsAnalysis.visualizer.sceneVisualizer axisLength "nan m"
attr mutable ""
attr unit m
par Wifi6McsAnalysis.visualizer.sceneVisualizer animationSpeed 0
par Wifi6McsAnalysis.visualizer.sceneVisualizer sceneMinX "nan m"
attr unit m
par Wifi6McsAnalysis.visualizer.sceneVisualizer sceneMinY "nan m"
attr unit m
par Wifi6McsAnalysis.visualizer.sceneVisualizer sceneMinZ "nan m"
attr unit m
par Wifi6McsAnalysis.visualizer.sceneVisualizer sceneMaxX "nan m"
attr unit m
par Wifi6McsAnalysis.visualizer.sceneVisualizer sceneMaxY "nan m"
attr unit m
par Wifi6McsAnalysis.visualizer.sceneVisualizer sceneMaxZ "nan m"
attr unit m
par Wifi6McsAnalysis.visualizer.sceneVisualizer zIndex 0
par Wifi6McsAnalysis.visualizer.sceneVisualizer viewAngle "\"x right y down z out\""
attr mutable ""
par Wifi6McsAnalysis.visualizer.sceneVisualizer viewScale "\"1 1\""
attr mutable ""
par Wifi6McsAnalysis.visualizer.sceneVisualizer viewTranslation "\"0 0\""
attr mutable ""
par Wifi6McsAnalysis.visualizer.sceneVisualizer descriptionFigure "\"\""
par Wifi6McsAnalysis.visualizer.physicalEnvironmentVisualizer typename "\"inet.visualizer.canvas.environment.PhysicalEnvironmentCanvasVisualizer\""
par Wifi6McsAnalysis.visualizer.physicalEnvironmentVisualizer visualizationTargetModule "\"^.^\""
par Wifi6McsAnalysis.visualizer.physicalEnvironmentVisualizer visualizationSubjectModule "\"^.^\""
par Wifi6McsAnalysis.visualizer.physicalEnvironmentVisualizer tags "\"\""
par Wifi6McsAnalysis.visualizer.physicalEnvironmentVisualizer physicalEnvironmentModule "\"physicalEnvironment\""
par Wifi6McsAnalysis.visualizer.physicalEnvironmentVisualizer displayObjects true
par Wifi6McsAnalysis.visualizer.physicalEnvironmentVisualizer zIndex 0
par Wifi6McsAnalysis.visualizer.networkNodeVisualizer typename "\"inet.visualizer.canvas.scene.NetworkNodeCanvasVisualizer\""
par Wifi6McsAnalysis.visualizer.networkNodeVisualizer visualizationTargetModule "\"^.^\""
par Wifi6McsAnalysis.visualizer.networkNodeVisualizer visualizationSubjectModule "\"^.^\""
par Wifi6McsAnalysis.visualizer.networkNodeVisualizer tags "\"\""
par Wifi6McsAnalysis.visualizer.networkNodeVisualizer nodeFilter "\"*\""
attr mutable ""
par Wifi6McsAnalysis.visualizer.networkNodeVisualizer annotationSpacing 4
par Wifi6McsAnalysis.visualizer.networkNodeVisualizer placementPenalty 10
par Wifi6McsAnalysis.visualizer.networkNodeVisualizer zIndex 0
par Wifi6McsAnalysis.visualizer.networkConnectionVisualizer typename "\"inet.visualizer.canvas.scene.NetworkConnectionCanvasVisualizer\""
par Wifi6McsAnalysis.visualizer.networkConnectionVisualizer visualizationTargetModule "\"^.^\""
par Wifi6McsAnalysis.visualizer.networkConnectionVisualizer visualizationSubjectModule "\"^.^\""
par Wifi6McsAnalysis.visualizer.networkConnectionVisualizer tags "\"\""
par Wifi6McsAnalysis.visualizer.networkConnectionVisualizer displayNetworkConnections true
par Wifi6McsAnalysis.visualizer.networkConnectionVisualizer nodeFilter "\"\""
attr mutable ""
par Wifi6McsAnalysis.visualizer.networkConnectionVisualizer lineColor "\"black\""
par Wifi6McsAnalysis.visualizer.networkConnectionVisualizer lineStyle "\"solid\""
par Wifi6McsAnalysis.visualizer.networkConnectionVisualizer lineWidth 1
par Wifi6McsAnalysis.visualizer.networkConnectionVisualizer zIndex 0
par Wifi6McsAnalysis.visualizer.mobilityVisualizer typename "\"inet.visualizer.canvas.mobility.MobilityCanvasVisualizer\""
par Wifi6McsAnalysis.visualizer.mobilityVisualizer visualizationTargetModule "\"^.^\""
par Wifi6McsAnalysis.visualizer.mobilityVisualizer visualizationSubjectModule "\"^.^\""
par Wifi6McsAnalysis.visualizer.mobilityVisualizer tags "\"\""
par Wifi6McsAnalysis.visualizer.mobilityVisualizer networkNodeVisualizerModule "\"^.networkNodeVisualizer\""
par Wifi6McsAnalysis.visualizer.mobilityVisualizer displayMobility true
par Wifi6McsAnalysis.visualizer.mobilityVisualizer animationSpeed 0
par Wifi6McsAnalysis.visualizer.mobilityVisualizer moduleFilter "\"**.mobility\""
attr mutable ""
par Wifi6McsAnalysis.visualizer.mobilityVisualizer displayPositions false
par Wifi6McsAnalysis.visualizer.mobilityVisualizer positionCircleRadius 4
par Wifi6McsAnalysis.visualizer.mobilityVisualizer positionCircleLineWidth 1
par Wifi6McsAnalysis.visualizer.mobilityVisualizer positionCircleLineColor "\"dark\""
par Wifi6McsAnalysis.visualizer.mobilityVisualizer positionCircleFillColor "\"dark\""
par Wifi6McsAnalysis.visualizer.mobilityVisualizer displayOrientations false
par Wifi6McsAnalysis.visualizer.mobilityVisualizer orientationPieRadius 32
par Wifi6McsAnalysis.visualizer.mobilityVisualizer orientationPieSize 0.2
par Wifi6McsAnalysis.visualizer.mobilityVisualizer orientationPieOpacity 0.25
par Wifi6McsAnalysis.visualizer.mobilityVisualizer orientationLineColor "\"black\""
par Wifi6McsAnalysis.visualizer.mobilityVisualizer orientationLineStyle "\"solid\""
par Wifi6McsAnalysis.visualizer.mobilityVisualizer orientationLineWidth 1
par Wifi6McsAnalysis.visualizer.mobilityVisualizer orientationFillColor "\"blue\""
par Wifi6McsAnalysis.visualizer.mobilityVisualizer displayVelocities false
par Wifi6McsAnalysis.visualizer.mobilityVisualizer velocityArrowScale 1
par Wifi6McsAnalysis.visualizer.mobilityVisualizer velocityLineColor "\"black\""
par Wifi6McsAnalysis.visualizer.mobilityVisualizer velocityLineStyle "\"solid\""
par Wifi6McsAnalysis.visualizer.mobilityVisualizer velocityLineWidth 1
par Wifi6McsAnalysis.visualizer.mobilityVisualizer displayMovementTrails false
par Wifi6McsAnalysis.visualizer.mobilityVisualizer movementTrailLineColor "\"dark\""
par Wifi6McsAnalysis.visualizer.mobilityVisualizer movementTrailLineStyle "\"solid\""
par Wifi6McsAnalysis.visualizer.mobilityVisualizer movementTrailLineWidth 1
par Wifi6McsAnalysis.visualizer.mobilityVisualizer trailLength 100
par Wifi6McsAnalysis.visualizer.mobilityVisualizer zIndex 0
par Wifi6McsAnalysis.visualizer.statisticVisualizer typename "\"inet.visualizer.canvas.common.StatisticCanvasVisualizer\""
par Wifi6McsAnalysis.visualizer.statisticVisualizer visualizationTargetModule "\"^.^\""
par Wifi6McsAnalysis.visualizer.statisticVisualizer visualizationSubjectModule "\"^.^\""
par Wifi6McsAnalysis.visualizer.statisticVisualizer tags "\"\""
par Wifi6McsAnalysis.visualizer.statisticVisualizer networkNodeVisualizerModule "\"^.networkNodeVisualizer\""
par Wifi6McsAnalysis.visualizer.statisticVisualizer displayStatistics true
par Wifi6McsAnalysis.visualizer.statisticVisualizer signalName "\"\""
par Wifi6McsAnalysis.visualizer.statisticVisualizer statisticName "\"\""
par Wifi6McsAnalysis.visualizer.statisticVisualizer statisticUnit "\"\""
par Wifi6McsAnalysis.visualizer.statisticVisualizer statisticExpression "\"\""
par Wifi6McsAnalysis.visualizer.statisticVisualizer sourceFilter "\"**\""
attr mutable ""
par Wifi6McsAnalysis.visualizer.statisticVisualizer format "\"%n: %v %u\""
attr mutable ""
par Wifi6McsAnalysis.visualizer.statisticVisualizer unit "\"\""
par Wifi6McsAnalysis.visualizer.statisticVisualizer font "\"<default>\""
par Wifi6McsAnalysis.visualizer.statisticVisualizer textColor "\"black\""
par Wifi6McsAnalysis.visualizer.statisticVisualizer backgroundColor "\"white\""
par Wifi6McsAnalysis.visualizer.statisticVisualizer opacity 1
par Wifi6McsAnalysis.visualizer.statisticVisualizer placementHint "\"top\""
par Wifi6McsAnalysis.visualizer.statisticVisualizer placementPriority 0
par Wifi6McsAnalysis.visualizer.statisticVisualizer zIndex 10
par Wifi6McsAnalysis.visualizer.statisticVisualizer propertyName "\"\""
par Wifi6McsAnalysis.visualizer.statisticVisualizer propertyIndex "\"\""
par Wifi6McsAnalysis.visualizer.infoVisualizer typename "\"inet.visualizer.canvas.common.InfoCanvasVisualizer\""
par Wifi6McsAnalysis.visualizer.infoVisualizer visualizationTargetModule "\"^.^\""
par Wifi6McsAnalysis.visualizer.infoVisualizer visualizationSubjectModule "\"^.^\""
par Wifi6McsAnalysis.visualizer.infoVisualizer tags "\"\""
par Wifi6McsAnalysis.visualizer.infoVisualizer networkNodeVisualizerModule "\"^.networkNodeVisualizer\""
par Wifi6McsAnalysis.visualizer.infoVisualizer displayInfos true
par Wifi6McsAnalysis.visualizer.infoVisualizer modules "\"\""
attr mutable ""
par Wifi6McsAnalysis.visualizer.infoVisualizer format "\"%t\""
attr mutable ""
par Wifi6McsAnalysis.visualizer.infoVisualizer font "\"<default>\""
par Wifi6McsAnalysis.visualizer.infoVisualizer textColor "\"black\""
par Wifi6McsAnalysis.visualizer.infoVisualizer backgroundColor "\"white\""
par Wifi6McsAnalysis.visualizer.infoVisualizer opacity 1
par Wifi6McsAnalysis.visualizer.infoVisualizer placementHint "\"top\""
par Wifi6McsAnalysis.visualizer.infoVisualizer placementPriority 0
par Wifi6McsAnalysis.visualizer.infoVisualizer zIndex 10
par Wifi6McsAnalysis.visualizer.energyStorageVisualizer typename "\"inet.visualizer.canvas.power.EnergyStorageCanvasVisualizer\""
par Wifi6McsAnalysis.visualizer.energyStorageVisualizer visualizationTargetModule "\"^.^\""
par Wifi6McsAnalysis.visualizer.energyStorageVisualizer visualizationSubjectModule "\"^.^\""
par Wifi6McsAnalysis.visualizer.energyStorageVisualizer tags "\"\""
par Wifi6McsAnalysis.visualizer.energyStorageVisualizer networkNodeVisualizerModule "\"^.networkNodeVisualizer\""
par Wifi6McsAnalysis.visualizer.energyStorageVisualizer displayEnergyStorages false
par Wifi6McsAnalysis.visualizer.energyStorageVisualizer energyStorageFilter "\"**\""
par Wifi6McsAnalysis.visualizer.energyStorageVisualizer color "\"green\""
par Wifi6McsAnalysis.visualizer.energyStorageVisualizer width 8
par Wifi6McsAnalysis.visualizer.energyStorageVisualizer height 24
par Wifi6McsAnalysis.visualizer.energyStorageVisualizer spacing 2
par Wifi6McsAnalysis.visualizer.energyStorageVisualizer placementHint "\"right\""
par Wifi6McsAnalysis.visualizer.energyStorageVisualizer placementPriority 0
par Wifi6McsAnalysis.visualizer.energyStorageVisualizer zIndex 10
par Wifi6McsAnalysis.visualizer.mediumVisualizer typename "\"inet.visualizer.canvas.physicallayer.MediumCanvasVisualizer\""
par Wifi6McsAnalysis.visualizer.mediumVisualizer visualizationTargetModule "\"^.^\""
par Wifi6McsAnalysis.visualizer.mediumVisualizer visualizationSubjectModule "\"^.^\""
par Wifi6McsAnalysis.visualizer.mediumVisualizer tags "\"\""
par Wifi6McsAnalysis.visualizer.mediumVisualizer mediumModule "\"radioMedium\""
par Wifi6McsAnalysis.visualizer.mediumVisualizer networkNodeVisualizerModule "\"^.networkNodeVisualizer\""
par Wifi6McsAnalysis.visualizer.mediumVisualizer nodeFilter "\"*\""
attr mutable ""
par Wifi6McsAnalysis.visualizer.mediumVisualizer interfaceFilter "\"*\""
attr mutable ""
par Wifi6McsAnalysis.visualizer.mediumVisualizer packetFilter "(omnetpp::cValueHolder)holder: \"*\""
attr mutable ""
par Wifi6McsAnalysis.visualizer.mediumVisualizer displaySignals false
par Wifi6McsAnalysis.visualizer.mediumVisualizer signalColor "\"dark\""
par Wifi6McsAnalysis.visualizer.mediumVisualizer signalPropagationAnimationSpeed "nan "
attr mutable ""
par Wifi6McsAnalysis.visualizer.mediumVisualizer signalPropagationAnimationTime 1s
attr unit s
par Wifi6McsAnalysis.visualizer.mediumVisualizer signalPropagationAdditionalTime 0s
attr unit s
par Wifi6McsAnalysis.visualizer.mediumVisualizer signalTransmissionAnimationSpeed "nan "
attr mutable ""
par Wifi6McsAnalysis.visualizer.mediumVisualizer signalTransmissionAnimationTime 1s
attr unit s
par Wifi6McsAnalysis.visualizer.mediumVisualizer signalAnimationSpeedChangeTimeMode "\"realTime\""
attr enum realTime,animationTime,simulationTime
par Wifi6McsAnalysis.visualizer.mediumVisualizer signalAnimationSpeedChangeTime 1s
attr unit s
par Wifi6McsAnalysis.visualizer.mediumVisualizer displaySignalDepartures false
par Wifi6McsAnalysis.visualizer.mediumVisualizer signalDepartureImage "\"misc/signal_departure.png\""
par Wifi6McsAnalysis.visualizer.mediumVisualizer signalDeparturePlacementHint "\"topCenter\""
par Wifi6McsAnalysis.visualizer.mediumVisualizer signalDeparturePlacementPriority 1
par Wifi6McsAnalysis.visualizer.mediumVisualizer displaySignalArrivals false
par Wifi6McsAnalysis.visualizer.mediumVisualizer signalArrivalImage "\"misc/signal_arrival.png\""
par Wifi6McsAnalysis.visualizer.mediumVisualizer signalArrivalPlacementHint "\"topCenter\""
par Wifi6McsAnalysis.visualizer.mediumVisualizer signalArrivalPlacementPriority -1
par Wifi6McsAnalysis.visualizer.mediumVisualizer displayCommunicationRanges false
par Wifi6McsAnalysis.visualizer.mediumVisualizer communicationRangeLineColor "\"blue\""
par Wifi6McsAnalysis.visualizer.mediumVisualizer communicationRangeLineStyle "\"solid\""
par Wifi6McsAnalysis.visualizer.mediumVisualizer communicationRangeLineWidth 1
par Wifi6McsAnalysis.visualizer.mediumVisualizer displayInterferenceRanges false
par Wifi6McsAnalysis.visualizer.mediumVisualizer interferenceRangeLineColor "\"gray\""
par Wifi6McsAnalysis.visualizer.mediumVisualizer interferenceRangeLineStyle "\"solid\""
par Wifi6McsAnalysis.visualizer.mediumVisualizer interferenceRangeLineWidth 1
par Wifi6McsAnalysis.visualizer.mediumVisualizer autoPowerAxis true
par Wifi6McsAnalysis.visualizer.mediumVisualizer signalMinPower "inf dBmW"
attr unit dBmW
par Wifi6McsAnalysis.visualizer.mediumVisualizer signalMaxPower 0dBmW
attr unit dBmW
par Wifi6McsAnalysis.visualizer.mediumVisualizer signalMinPowerDensity "inf dBmWpMHz"
attr unit dBmWpMHz
par Wifi6McsAnalysis.visualizer.mediumVisualizer signalMaxPowerDensity "-inf dBmWpMHz"
attr unit dBmWpMHz
par Wifi6McsAnalysis.visualizer.mediumVisualizer autoTimeAxis true
par Wifi6McsAnalysis.visualizer.mediumVisualizer signalMinTime 0s
attr unit s
par Wifi6McsAnalysis.visualizer.mediumVisualizer signalMaxTime 0s
attr unit s
par Wifi6McsAnalysis.visualizer.mediumVisualizer autoFrequencyAxis true
par Wifi6McsAnalysis.visualizer.mediumVisualizer signalMinFrequency "inf Hz"
attr unit Hz
par Wifi6McsAnalysis.visualizer.mediumVisualizer signalMaxFrequency "-inf Hz"
attr unit Hz
par Wifi6McsAnalysis.visualizer.mediumVisualizer displayMainPowerDensityMap false
par Wifi6McsAnalysis.visualizer.mediumVisualizer mainPowerDensityMapPixmapDensity 1
par Wifi6McsAnalysis.visualizer.mediumVisualizer mainPowerDensityMapMinX 0
par Wifi6McsAnalysis.visualizer.mediumVisualizer mainPowerDensityMapMaxX "nan "
par Wifi6McsAnalysis.visualizer.mediumVisualizer mainPowerDensityMapMinY 0
par Wifi6McsAnalysis.visualizer.mediumVisualizer mainPowerDensityMapMaxY "nan "
par Wifi6McsAnalysis.visualizer.mediumVisualizer mainPowerDensityMapZ 0
par Wifi6McsAnalysis.visualizer.mediumVisualizer mainPowerDensityMapFigureXTickCount 3
par Wifi6McsAnalysis.visualizer.mediumVisualizer mainPowerDensityMapFigureYTickCount 3
par Wifi6McsAnalysis.visualizer.mediumVisualizer displayPowerDensityMaps false
par Wifi6McsAnalysis.visualizer.mediumVisualizer powerDensityMapMode "\"auto\""
attr enum total,signal,auto
par Wifi6McsAnalysis.visualizer.mediumVisualizer powerDensityMapPixelMode "\"mean\""
attr enum sample,partition,mean
par Wifi6McsAnalysis.visualizer.mediumVisualizer powerDensityMapApproximationSize 10
par Wifi6McsAnalysis.visualizer.mediumVisualizer powerDensityMapCenterFrequency "nan Hz"
attr mutable ""
attr unit Hz
par Wifi6McsAnalysis.visualizer.mediumVisualizer powerDensityMapBandwidth 0Hz
attr mutable ""
attr unit Hz
par Wifi6McsAnalysis.visualizer.mediumVisualizer powerDensityMapFigureWidth 200
par Wifi6McsAnalysis.visualizer.mediumVisualizer powerDensityMapFigureHeight 120
par Wifi6McsAnalysis.visualizer.mediumVisualizer powerDensityMapPixmapWidth 200
par Wifi6McsAnalysis.visualizer.mediumVisualizer powerDensityMapPixmapHeight 120
par Wifi6McsAnalysis.visualizer.mediumVisualizer powerDensityMapZ 0
par Wifi6McsAnalysis.visualizer.mediumVisualizer powerDensityMapFigureXTickCount 3
par Wifi6McsAnalysis.visualizer.mediumVisualizer powerDensityMapFigureYTickCount 3
par Wifi6McsAnalysis.visualizer.mediumVisualizer displaySpectrums false
par Wifi6McsAnalysis.visualizer.mediumVisualizer spectrumMode "\"auto\""
attr enum total,signal,auto
par Wifi6McsAnalysis.visualizer.mediumVisualizer spectrumFigureWidth 200
par Wifi6McsAnalysis.visualizer.mediumVisualizer spectrumFigureHeight 120
par Wifi6McsAnalysis.visualizer.mediumVisualizer spectrumFigureXTickCount 3
par Wifi6McsAnalysis.visualizer.mediumVisualizer spectrumFigureYTickCount 5
par Wifi6McsAnalysis.visualizer.mediumVisualizer spectrumFigureInterpolationSize 5
par Wifi6McsAnalysis.visualizer.mediumVisualizer spectrumPlacementHint "\"bottomCenter\""
par Wifi6McsAnalysis.visualizer.mediumVisualizer spectrumPlacementPriority -1
par Wifi6McsAnalysis.visualizer.mediumVisualizer displaySpectrograms false
par Wifi6McsAnalysis.visualizer.mediumVisualizer spectrogramMode "\"auto\""
attr enum total,signal,auto
par Wifi6McsAnalysis.visualizer.mediumVisualizer spectrogramPixelMode "\"mean\""
attr enum sample,partition,mean
par Wifi6McsAnalysis.visualizer.mediumVisualizer spectrogramFigureWidth 200
par Wifi6McsAnalysis.visualizer.mediumVisualizer spectrogramFigureHeight 120
par Wifi6McsAnalysis.visualizer.mediumVisualizer spectrogramPixmapWidth 200
par Wifi6McsAnalysis.visualizer.mediumVisualizer spectrogramPixmapHeight 120
par Wifi6McsAnalysis.visualizer.mediumVisualizer spectrogramFigureXTickCount 3
par Wifi6McsAnalysis.visualizer.mediumVisualizer spectrogramFigureYTickCount 5
par Wifi6McsAnalysis.visualizer.mediumVisualizer spectrogramPlacementHint "\"bottomCenter\""
par Wifi6McsAnalysis.visualizer.mediumVisualizer spectrogramPlacementPriority -1
par Wifi6McsAnalysis.visualizer.mediumVisualizer zIndex 0
par Wifi6McsAnalysis.visualizer.mediumVisualizer signalShape "\"ring\""
attr enum ring,sphere
par Wifi6McsAnalysis.visualizer.mediumVisualizer signalOpacity 0.5
par Wifi6McsAnalysis.visualizer.mediumVisualizer signalRingCount 20
par Wifi6McsAnalysis.visualizer.mediumVisualizer signalRingSize 50m
attr unit m
par Wifi6McsAnalysis.visualizer.mediumVisualizer signalFadingDistance 50m
attr unit m
par Wifi6McsAnalysis.visualizer.mediumVisualizer signalFadingFactor 1.2
par Wifi6McsAnalysis.visualizer.mediumVisualizer signalWaveCount 20
par Wifi6McsAnalysis.visualizer.mediumVisualizer signalWaveLength 50m
attr unit m
par Wifi6McsAnalysis.visualizer.mediumVisualizer signalWaveWidth 10m
attr unit m
par Wifi6McsAnalysis.visualizer.mediumVisualizer signalWaveFadingAnimationSpeedFactor 1
par Wifi6McsAnalysis.visualizer.mediumVisualizer displayCommunicationHeat false
par Wifi6McsAnalysis.visualizer.obstacleLossVisualizer typename "\"inet.visualizer.canvas.physicallayer.TracingObstacleLossCanvasVisualizer\""
par Wifi6McsAnalysis.visualizer.obstacleLossVisualizer visualizationTargetModule "\"^.^\""
par Wifi6McsAnalysis.visualizer.obstacleLossVisualizer visualizationSubjectModule "\"^.^\""
par Wifi6McsAnalysis.visualizer.obstacleLossVisualizer tags "\"\""
par Wifi6McsAnalysis.visualizer.obstacleLossVisualizer displayIntersections false
par Wifi6McsAnalysis.visualizer.obstacleLossVisualizer intersectionLineColor "\"red\""
par Wifi6McsAnalysis.visualizer.obstacleLossVisualizer intersectionLineStyle "\"solid\""
par Wifi6McsAnalysis.visualizer.obstacleLossVisualizer intersectionLineWidth 1
par Wifi6McsAnalysis.visualizer.obstacleLossVisualizer displayFaceNormalVectors false
par Wifi6McsAnalysis.visualizer.obstacleLossVisualizer faceNormalLineColor "\"grey\""
par Wifi6McsAnalysis.visualizer.obstacleLossVisualizer faceNormalLineStyle "\"solid\""
par Wifi6McsAnalysis.visualizer.obstacleLossVisualizer faceNormalLineWidth 1
par Wifi6McsAnalysis.visualizer.obstacleLossVisualizer fadeOutMode "\"realTime\""
attr enum realTime,animationTime,simulationTime
par Wifi6McsAnalysis.visualizer.obstacleLossVisualizer fadeOutTime 1s
attr unit s
par Wifi6McsAnalysis.visualizer.obstacleLossVisualizer fadeOutAnimationSpeed 0
par Wifi6McsAnalysis.visualizer.obstacleLossVisualizer zIndex 0
par Wifi6McsAnalysis.visualizer.packetDropVisualizer typename "\"inet.visualizer.canvas.common.PacketDropCanvasVisualizer\""
par Wifi6McsAnalysis.visualizer.packetDropVisualizer visualizationTargetModule "\"^.^\""
par Wifi6McsAnalysis.visualizer.packetDropVisualizer visualizationSubjectModule "\"^.^\""
par Wifi6McsAnalysis.visualizer.packetDropVisualizer tags "\"\""
par Wifi6McsAnalysis.visualizer.packetDropVisualizer displayPacketDrops false
par Wifi6McsAnalysis.visualizer.packetDropVisualizer nodeFilter "\"*\""
attr mutable ""
par Wifi6McsAnalysis.visualizer.packetDropVisualizer interfaceFilter "\"*\""
attr mutable ""
par Wifi6McsAnalysis.visualizer.packetDropVisualizer packetFilter "(omnetpp::cValueHolder)holder: \"*\""
attr mutable ""
par Wifi6McsAnalysis.visualizer.packetDropVisualizer detailsFilter "\"*\""
attr mutable ""
par Wifi6McsAnalysis.visualizer.packetDropVisualizer icon "\"msg/packet_s\""
par Wifi6McsAnalysis.visualizer.packetDropVisualizer iconTintAmount 1
par Wifi6McsAnalysis.visualizer.packetDropVisualizer iconTintColor "\"dark\""
par Wifi6McsAnalysis.visualizer.packetDropVisualizer labelFormat "\"%n\""
attr mutable ""
par Wifi6McsAnalysis.visualizer.packetDropVisualizer labelFont "\"<default>\""
par Wifi6McsAnalysis.visualizer.packetDropVisualizer labelColor "\"black\""
par Wifi6McsAnalysis.visualizer.packetDropVisualizer fadeOutMode "\"realTime\""
attr enum realTime,animationTime,simulationTime
par Wifi6McsAnalysis.visualizer.packetDropVisualizer fadeOutTime 1s
attr unit s
par Wifi6McsAnalysis.visualizer.packetDropVisualizer fadeOutAnimationSpeed 0
par Wifi6McsAnalysis.visualizer.packetDropVisualizer zIndex 10
par Wifi6McsAnalysis.visualizer.packetDropVisualizer dx 32
par Wifi6McsAnalysis.visualizer.packetDropVisualizer dy 64
par Wifi6McsAnalysis.visualizer.packetFlowVisualizer typename "\"inet.visualizer.canvas.flow.PacketFlowCanvasVisualizer\""
par Wifi6McsAnalysis.visualizer.packetFlowVisualizer visualizationTargetModule "\"^.^\""
par Wifi6McsAnalysis.visualizer.packetFlowVisualizer visualizationSubjectModule "\"^.^\""
par Wifi6McsAnalysis.visualizer.packetFlowVisualizer tags "\"\""
par Wifi6McsAnalysis.visualizer.packetFlowVisualizer displayRoutes false
par Wifi6McsAnalysis.visualizer.packetFlowVisualizer startPathSignal "\"packetFlowStarted\""
par Wifi6McsAnalysis.visualizer.packetFlowVisualizer extendPathSignal "\"packetReceivedFromLower\""
par Wifi6McsAnalysis.visualizer.packetFlowVisualizer endPathSignal "\"packetFlowEnded\""
par Wifi6McsAnalysis.visualizer.packetFlowVisualizer nodeFilter "\"*\""
attr mutable ""
par Wifi6McsAnalysis.visualizer.packetFlowVisualizer packetFilter "(omnetpp::cValueHolder)holder: \"*\""
attr mutable ""
par Wifi6McsAnalysis.visualizer.packetFlowVisualizer lineColor "\"dark\""
par Wifi6McsAnalysis.visualizer.packetFlowVisualizer lineStyle "\"dashed\""
par Wifi6McsAnalysis.visualizer.packetFlowVisualizer lineWidth 3
par Wifi6McsAnalysis.visualizer.packetFlowVisualizer lineSmooth false
par Wifi6McsAnalysis.visualizer.packetFlowVisualizer lineShift 16
par Wifi6McsAnalysis.visualizer.packetFlowVisualizer lineShiftMode "\"normal\""
par Wifi6McsAnalysis.visualizer.packetFlowVisualizer lineContactSpacing 3
par Wifi6McsAnalysis.visualizer.packetFlowVisualizer lineContactMode "\"rectangular\""
attr enum circular,rectangular
par Wifi6McsAnalysis.visualizer.packetFlowVisualizer labelFormat "\"%L %p pk (%l)\""
par Wifi6McsAnalysis.visualizer.packetFlowVisualizer labelFont "\"<default>, 8px\""
par Wifi6McsAnalysis.visualizer.packetFlowVisualizer labelColor "\"\""
par Wifi6McsAnalysis.visualizer.packetFlowVisualizer fadeOutMode "\"realTime\""
attr enum realTime,animationTime,simulationTime
par Wifi6McsAnalysis.visualizer.packetFlowVisualizer fadeOutTime 0s
attr unit s
par Wifi6McsAnalysis.visualizer.packetFlowVisualizer fadeOutAnimationSpeed 0
par Wifi6McsAnalysis.visualizer.packetFlowVisualizer zIndex 4
par Wifi6McsAnalysis.visualizer.queueVisualizer typename "\"inet.visualizer.canvas.common.QueueCanvasVisualizer\""
par Wifi6McsAnalysis.visualizer.queueVisualizer visualizationTargetModule "\"^.^\""
par Wifi6McsAnalysis.visualizer.queueVisualizer visualizationSubjectModule "\"^.^\""
par Wifi6McsAnalysis.visualizer.queueVisualizer tags "\"\""
par Wifi6McsAnalysis.visualizer.queueVisualizer networkNodeVisualizerModule "\"^.networkNodeVisualizer\""
par Wifi6McsAnalysis.visualizer.queueVisualizer displayQueues false
par Wifi6McsAnalysis.visualizer.queueVisualizer queueFilter "\"**\""
par Wifi6McsAnalysis.visualizer.queueVisualizer color "\"blue\""
par Wifi6McsAnalysis.visualizer.queueVisualizer width 8
par Wifi6McsAnalysis.visualizer.queueVisualizer height 24
par Wifi6McsAnalysis.visualizer.queueVisualizer spacing 2
par Wifi6McsAnalysis.visualizer.queueVisualizer placementHint "\"right\""
par Wifi6McsAnalysis.visualizer.queueVisualizer placementPriority 0
par Wifi6McsAnalysis.visualizer.queueVisualizer zIndex 10
par Wifi6McsAnalysis.visualizer.gateScheduleVisualizer typename "\"inet.visualizer.canvas.common.GateScheduleCanvasVisualizer\""
par Wifi6McsAnalysis.visualizer.gateScheduleVisualizer visualizationTargetModule "\"^.^\""
par Wifi6McsAnalysis.visualizer.gateScheduleVisualizer visualizationSubjectModule "\"^.^\""
par Wifi6McsAnalysis.visualizer.gateScheduleVisualizer tags "\"\""
par Wifi6McsAnalysis.visualizer.gateScheduleVisualizer networkNodeVisualizerModule "\"^.networkNodeVisualizer\""
par Wifi6McsAnalysis.visualizer.gateScheduleVisualizer displayGateSchedules false
par Wifi6McsAnalysis.visualizer.gateScheduleVisualizer labelFormat "\"%i %D\""
par Wifi6McsAnalysis.visualizer.gateScheduleVisualizer gateFilter "\"**\""
par Wifi6McsAnalysis.visualizer.gateScheduleVisualizer width 100
par Wifi6McsAnalysis.visualizer.gateScheduleVisualizer height 8
par Wifi6McsAnalysis.visualizer.gateScheduleVisualizer spacing 2
par Wifi6McsAnalysis.visualizer.gateScheduleVisualizer placementHint "\"right\""
par Wifi6McsAnalysis.visualizer.gateScheduleVisualizer placementPriority 0
par Wifi6McsAnalysis.visualizer.gateScheduleVisualizer displayDuration 0s
attr mutable ""
attr unit s
par Wifi6McsAnalysis.visualizer.gateScheduleVisualizer currentTimePosition 50
par Wifi6McsAnalysis.visualizer.gateScheduleVisualizer zIndex 10
par Wifi6McsAnalysis.visualizer.radioVisualizer typename "\"inet.visualizer.canvas.physicallayer.RadioCanvasVisualizer\""
par Wifi6McsAnalysis.visualizer.radioVisualizer visualizationTargetModule "\"^.^\""
par Wifi6McsAnalysis.visualizer.radioVisualizer visualizationSubjectModule "\"^.^\""
par Wifi6McsAnalysis.visualizer.radioVisualizer tags "\"\""
par Wifi6McsAnalysis.visualizer.radioVisualizer networkNodeVisualizerModule "\"^.networkNodeVisualizer\""
par Wifi6McsAnalysis.visualizer.radioVisualizer displayRadios false
par Wifi6McsAnalysis.visualizer.radioVisualizer displayRadioMode true
par Wifi6McsAnalysis.visualizer.radioVisualizer displayReceptionState true
par Wifi6McsAnalysis.visualizer.radioVisualizer displayTransmissionState true
par Wifi6McsAnalysis.visualizer.radioVisualizer displayAntennaLobes false
par Wifi6McsAnalysis.visualizer.radioVisualizer radioFilter "\"**\""
attr mutable ""
par Wifi6McsAnalysis.visualizer.radioVisualizer radioModeImages "\"block/process_vs block/timer_vs block/wrx_vs block/wtx_vs block/wrxtx_vs block/cogwheel_vs\""
par Wifi6McsAnalysis.visualizer.radioVisualizer receptionStateImages "\"- - misc/receiving misc/receiving\""
par Wifi6McsAnalysis.visualizer.radioVisualizer transmissionStateImages "\"- - misc/transmitting\""
par Wifi6McsAnalysis.visualizer.radioVisualizer width 16
par Wifi6McsAnalysis.visualizer.radioVisualizer height 16
par Wifi6McsAnalysis.visualizer.radioVisualizer placementHint "\"bottomRight\""
par Wifi6McsAnalysis.visualizer.radioVisualizer placementPriority 0
par Wifi6McsAnalysis.visualizer.radioVisualizer antennaLobeNormalize false
par Wifi6McsAnalysis.visualizer.radioVisualizer antennaLobeRelativeLabels false
par Wifi6McsAnalysis.visualizer.radioVisualizer antennaLobePlaneGlobal true
par Wifi6McsAnalysis.visualizer.radioVisualizer antennaLobePlane "\"view\""
attr enum view,xy,xz,yz
par Wifi6McsAnalysis.visualizer.radioVisualizer antennaLobeMode "\"logarithmic\""
attr enum logarithmic,linear
par Wifi6McsAnalysis.visualizer.radioVisualizer antennaLobeLogarithmicBase 10
par Wifi6McsAnalysis.visualizer.radioVisualizer antennaLobeLogarithmicScale 100
par Wifi6McsAnalysis.visualizer.radioVisualizer antennaLobeRadius 100
par Wifi6McsAnalysis.visualizer.radioVisualizer antennaLobeStep 10deg
attr unit deg
par Wifi6McsAnalysis.visualizer.radioVisualizer antennaLobeOpacity 0.25
par Wifi6McsAnalysis.visualizer.radioVisualizer antennaLobeLineSmooth true
par Wifi6McsAnalysis.visualizer.radioVisualizer antennaLobeLineColor "\"black\""
par Wifi6McsAnalysis.visualizer.radioVisualizer antennaLobeLineStyle "\"solid\""
par Wifi6McsAnalysis.visualizer.radioVisualizer antennaLobeLineWidth 1
par Wifi6McsAnalysis.visualizer.radioVisualizer antennaLobeFillColor "\"white\""
par Wifi6McsAnalysis.visualizer.radioVisualizer zIndex 10
par Wifi6McsAnalysis.visualizer.physicalLinkVisualizer typename "\"inet.visualizer.canvas.physicallayer.PhysicalLinkCanvasVisualizer\""
par Wifi6McsAnalysis.visualizer.physicalLinkVisualizer visualizationTargetModule "\"^.^\""
par Wifi6McsAnalysis.visualizer.physicalLinkVisualizer visualizationSubjectModule "\"^.^\""
par Wifi6McsAnalysis.visualizer.physicalLinkVisualizer tags "\"\""
par Wifi6McsAnalysis.visualizer.physicalLinkVisualizer displayLinks false
par Wifi6McsAnalysis.visualizer.physicalLinkVisualizer activityLevel "\"service\""
attr enum service,peer,protocol
par Wifi6McsAnalysis.visualizer.physicalLinkVisualizer nodeFilter "\"*\""
attr mutable ""
par Wifi6McsAnalysis.visualizer.physicalLinkVisualizer interfaceFilter "\"*\""
attr mutable ""
par Wifi6McsAnalysis.visualizer.physicalLinkVisualizer packetFilter "(omnetpp::cValueHolder)holder: \"*\""
attr mutable ""
par Wifi6McsAnalysis.visualizer.physicalLinkVisualizer lineColor "\"olive\""
par Wifi6McsAnalysis.visualizer.physicalLinkVisualizer lineStyle "\"dotted\""
par Wifi6McsAnalysis.visualizer.physicalLinkVisualizer lineWidth 3
par Wifi6McsAnalysis.visualizer.physicalLinkVisualizer lineShift 16
par Wifi6McsAnalysis.visualizer.physicalLinkVisualizer lineShiftMode "\"normal\""
par Wifi6McsAnalysis.visualizer.physicalLinkVisualizer lineContactSpacing 3
par Wifi6McsAnalysis.visualizer.physicalLinkVisualizer lineContactMode "\"rectangular\""
attr enum circular,rectangular
par Wifi6McsAnalysis.visualizer.physicalLinkVisualizer labelFormat "\"%n\""
par Wifi6McsAnalysis.visualizer.physicalLinkVisualizer labelFont "\"<default>, 8px\""
par Wifi6McsAnalysis.visualizer.physicalLinkVisualizer labelColor "\"olive\""
par Wifi6McsAnalysis.visualizer.physicalLinkVisualizer fadeOutMode "\"realTime\""
attr enum realTime,animationTime,simulationTime
par Wifi6McsAnalysis.visualizer.physicalLinkVisualizer fadeOutTime 1s
attr unit s
par Wifi6McsAnalysis.visualizer.physicalLinkVisualizer fadeOutAnimationSpeed 0
par Wifi6McsAnalysis.visualizer.physicalLinkVisualizer holdAnimationTime 0s
attr unit s
par Wifi6McsAnalysis.visualizer.physicalLinkVisualizer zIndex 1
par Wifi6McsAnalysis.visualizer.interfaceTableVisualizer typename "\"inet.visualizer.canvas.linklayer.InterfaceTableCanvasVisualizer\""
par Wifi6McsAnalysis.visualizer.interfaceTableVisualizer visualizationTargetModule "\"^.^\""
par Wifi6McsAnalysis.visualizer.interfaceTableVisualizer visualizationSubjectModule "\"^.^\""
par Wifi6McsAnalysis.visualizer.interfaceTableVisualizer tags "\"\""
par Wifi6McsAnalysis.visualizer.interfaceTableVisualizer networkNodeVisualizerModule "\"^.networkNodeVisualizer\""
par Wifi6McsAnalysis.visualizer.interfaceTableVisualizer displayInterfaceTables false
par Wifi6McsAnalysis.visualizer.interfaceTableVisualizer displayWiredInterfacesAtConnections true
par Wifi6McsAnalysis.visualizer.interfaceTableVisualizer displayBackground false
par Wifi6McsAnalysis.visualizer.interfaceTableVisualizer nodeFilter "\"*\""
attr mutable ""
par Wifi6McsAnalysis.visualizer.interfaceTableVisualizer interfaceFilter "\"not(lo*)\""
attr mutable ""
par Wifi6McsAnalysis.visualizer.interfaceTableVisualizer format "\"%N %\\\\%a%/%l\""
attr mutable ""
par Wifi6McsAnalysis.visualizer.interfaceTableVisualizer placementHint "\"top\""
par Wifi6McsAnalysis.visualizer.interfaceTableVisualizer placementPriority 0
par Wifi6McsAnalysis.visualizer.interfaceTableVisualizer font "\"<default>\""
par Wifi6McsAnalysis.visualizer.interfaceTableVisualizer textColor "\"#005030\""
par Wifi6McsAnalysis.visualizer.interfaceTableVisualizer backgroundColor "\"white\""
par Wifi6McsAnalysis.visualizer.interfaceTableVisualizer opacity 1
par Wifi6McsAnalysis.visualizer.interfaceTableVisualizer zIndex 10
par Wifi6McsAnalysis.visualizer.dataLinkVisualizer typename "\"inet.visualizer.canvas.linklayer.DataLinkCanvasVisualizer\""
par Wifi6McsAnalysis.visualizer.dataLinkVisualizer visualizationTargetModule "\"^.^\""
par Wifi6McsAnalysis.visualizer.dataLinkVisualizer visualizationSubjectModule "\"^.^\""
par Wifi6McsAnalysis.visualizer.dataLinkVisualizer tags "\"\""
par Wifi6McsAnalysis.visualizer.dataLinkVisualizer displayLinks false
par Wifi6McsAnalysis.visualizer.dataLinkVisualizer activityLevel "\"service\""
attr enum service,peer,protocol
par Wifi6McsAnalysis.visualizer.dataLinkVisualizer nodeFilter "\"*\""
attr mutable ""
par Wifi6McsAnalysis.visualizer.dataLinkVisualizer interfaceFilter "\"*\""
attr mutable ""
par Wifi6McsAnalysis.visualizer.dataLinkVisualizer packetFilter "(omnetpp::cValueHolder)holder: \"*\""
attr mutable ""
par Wifi6McsAnalysis.visualizer.dataLinkVisualizer lineColor "\"darkcyan\""
par Wifi6McsAnalysis.visualizer.dataLinkVisualizer lineStyle "\"solid\""
par Wifi6McsAnalysis.visualizer.dataLinkVisualizer lineWidth 3
par Wifi6McsAnalysis.visualizer.dataLinkVisualizer lineShift 16
par Wifi6McsAnalysis.visualizer.dataLinkVisualizer lineShiftMode "\"normal\""
par Wifi6McsAnalysis.visualizer.dataLinkVisualizer lineContactSpacing 3
par Wifi6McsAnalysis.visualizer.dataLinkVisualizer lineContactMode "\"rectangular\""
attr enum circular,rectangular
par Wifi6McsAnalysis.visualizer.dataLinkVisualizer labelFormat "\"%n\""
par Wifi6McsAnalysis.visualizer.dataLinkVisualizer labelFont "\"<default>, 8px\""
par Wifi6McsAnalysis.visualizer.dataLinkVisualizer labelColor "\"darkcyan\""
par Wifi6McsAnalysis.visualizer.dataLinkVisualizer fadeOutMode "\"realTime\""
attr enum realTime,animationTime,simulationTime
par Wifi6McsAnalysis.visualizer.dataLinkVisualizer fadeOutTime 1s
attr unit s
par Wifi6McsAnalysis.visualizer.dataLinkVisualizer fadeOutAnimationSpeed 0
par Wifi6McsAnalysis.visualizer.dataLinkVisualizer holdAnimationTime 0s
attr unit s
par Wifi6McsAnalysis.visualizer.dataLinkVisualizer zIndex 2
par Wifi6McsAnalysis.visualizer.linkBreakVisualizer typename "\"inet.visualizer.canvas.linklayer.LinkBreakCanvasVisualizer\""
par Wifi6McsAnalysis.visualizer.linkBreakVisualizer visualizationTargetModule "\"^.^\""
par Wifi6McsAnalysis.visualizer.linkBreakVisualizer visualizationSubjectModule "\"^.^\""
par Wifi6McsAnalysis.visualizer.linkBreakVisualizer tags "\"\""
par Wifi6McsAnalysis.visualizer.linkBreakVisualizer displayLinkBreaks false
par Wifi6McsAnalysis.visualizer.linkBreakVisualizer nodeFilter "\"*\""
attr mutable ""
par Wifi6McsAnalysis.visualizer.linkBreakVisualizer interfaceFilter "\"*\""
attr mutable ""
par Wifi6McsAnalysis.visualizer.linkBreakVisualizer packetFilter "(omnetpp::cValueHolder)holder: \"*\""
attr mutable ""
par Wifi6McsAnalysis.visualizer.linkBreakVisualizer icon "\"status/stop\""
par Wifi6McsAnalysis.visualizer.linkBreakVisualizer iconTintAmount 0
par Wifi6McsAnalysis.visualizer.linkBreakVisualizer iconTintColor "\"\""
par Wifi6McsAnalysis.visualizer.linkBreakVisualizer fadeOutMode "\"realTime\""
attr enum realTime,animationTime,simulationTime
par Wifi6McsAnalysis.visualizer.linkBreakVisualizer fadeOutTime 1s
attr unit s
par Wifi6McsAnalysis.visualizer.linkBreakVisualizer fadeOutAnimationSpeed 0
par Wifi6McsAnalysis.visualizer.linkBreakVisualizer zIndex 2
par Wifi6McsAnalysis.visualizer.ieee80211Visualizer typename "\"inet.visualizer.canvas.linklayer.Ieee80211CanvasVisualizer\""
par Wifi6McsAnalysis.visualizer.ieee80211Visualizer visualizationTargetModule "\"^.^\""
par Wifi6McsAnalysis.visualizer.ieee80211Visualizer visualizationSubjectModule "\"^.^\""
par Wifi6McsAnalysis.visualizer.ieee80211Visualizer tags "\"\""
par Wifi6McsAnalysis.visualizer.ieee80211Visualizer networkNodeVisualizerModule "\"^.networkNodeVisualizer\""
par Wifi6McsAnalysis.visualizer.ieee80211Visualizer displayAssociations false
par Wifi6McsAnalysis.visualizer.ieee80211Visualizer nodeFilter "\"*\""
attr mutable ""
par Wifi6McsAnalysis.visualizer.ieee80211Visualizer interfaceFilter "\"*\""
attr mutable ""
par Wifi6McsAnalysis.visualizer.ieee80211Visualizer minPower -85dBm
attr unit dBm
par Wifi6McsAnalysis.visualizer.ieee80211Visualizer maxPower -50dBm
attr unit dBm
par Wifi6McsAnalysis.visualizer.ieee80211Visualizer icons "\"misc/signal_power_0 misc/signal_power_1 misc/signal_power_2 misc/signal_power_3\""
par Wifi6McsAnalysis.visualizer.ieee80211Visualizer iconColor "\"dark\""
par Wifi6McsAnalysis.visualizer.ieee80211Visualizer labelFont "\"<default>\""
par Wifi6McsAnalysis.visualizer.ieee80211Visualizer labelColor "\"black\""
par Wifi6McsAnalysis.visualizer.ieee80211Visualizer placementHint "\"top\""
par Wifi6McsAnalysis.visualizer.ieee80211Visualizer placementPriority 0
par Wifi6McsAnalysis.visualizer.ieee80211Visualizer zIndex 2
par Wifi6McsAnalysis.visualizer.networkRouteVisualizer typename "\"inet.visualizer.canvas.networklayer.NetworkRouteCanvasVisualizer\""
par Wifi6McsAnalysis.visualizer.networkRouteVisualizer visualizationTargetModule "\"^.^\""
par Wifi6McsAnalysis.visualizer.networkRouteVisualizer visualizationSubjectModule "\"^.^\""
par Wifi6McsAnalysis.visualizer.networkRouteVisualizer tags "\"\""
par Wifi6McsAnalysis.visualizer.networkRouteVisualizer displayRoutes false
par Wifi6McsAnalysis.visualizer.networkRouteVisualizer startPathSignal "\"packetReceivedFromUpper\""
par Wifi6McsAnalysis.visualizer.networkRouteVisualizer extendPathSignal "\"packetReceivedFromLower\""
par Wifi6McsAnalysis.visualizer.networkRouteVisualizer endPathSignal "\"packetSentToUpper\""
par Wifi6McsAnalysis.visualizer.networkRouteVisualizer nodeFilter "\"*\""
attr mutable ""
par Wifi6McsAnalysis.visualizer.networkRouteVisualizer packetFilter "(omnetpp::cValueHolder)holder: \"*\""
attr mutable ""
par Wifi6McsAnalysis.visualizer.networkRouteVisualizer lineColor "\"dark\""
par Wifi6McsAnalysis.visualizer.networkRouteVisualizer lineStyle "\"solid\""
par Wifi6McsAnalysis.visualizer.networkRouteVisualizer lineWidth 3
par Wifi6McsAnalysis.visualizer.networkRouteVisualizer lineSmooth false
par Wifi6McsAnalysis.visualizer.networkRouteVisualizer lineShift 16
par Wifi6McsAnalysis.visualizer.networkRouteVisualizer lineShiftMode "\"normal\""
par Wifi6McsAnalysis.visualizer.networkRouteVisualizer lineContactSpacing 3
par Wifi6McsAnalysis.visualizer.networkRouteVisualizer lineContactMode "\"rectangular\""
attr enum circular,rectangular
par Wifi6McsAnalysis.visualizer.networkRouteVisualizer labelFormat "\"%n\""
par Wifi6McsAnalysis.visualizer.networkRouteVisualizer labelFont "\"<default>, 8px\""
par Wifi6McsAnalysis.visualizer.networkRouteVisualizer labelColor "\"\""
par Wifi6McsAnalysis.visualizer.networkRouteVisualizer fadeOutMode "\"realTime\""
attr enum realTime,animationTime,simulationTime
par Wifi6McsAnalysis.visualizer.networkRouteVisualizer fadeOutTime 1s
attr unit s
par Wifi6McsAnalysis.visualizer.networkRouteVisualizer fadeOutAnimationSpeed 0
par Wifi6McsAnalysis.visualizer.networkRouteVisualizer zIndex 3
par Wifi6McsAnalysis.visualizer.routingTableVisualizer typename "\"inet.visualizer.canvas.networklayer.RoutingTableCanvasVisualizer\""
par Wifi6McsAnalysis.visualizer.routingTableVisualizer visualizationTargetModule "\"^.^\""
par Wifi6McsAnalysis.visualizer.routingTableVisualizer visualizationSubjectModule "\"^.^\""
par Wifi6McsAnalysis.visualizer.routingTableVisualizer tags "\"\""
par Wifi6McsAnalysis.visualizer.routingTableVisualizer displayRoutingTables false
par Wifi6McsAnalysis.visualizer.routingTableVisualizer displayRoutesIndividually true
par Wifi6McsAnalysis.visualizer.routingTableVisualizer displayLabels true
par Wifi6McsAnalysis.visualizer.routingTableVisualizer destinationFilter "\"*\""
attr mutable ""
par Wifi6McsAnalysis.visualizer.routingTableVisualizer nodeFilter "\"*\""
attr mutable ""
par Wifi6McsAnalysis.visualizer.routingTableVisualizer lineColor "\"black\""
par Wifi6McsAnalysis.visualizer.routingTableVisualizer lineStyle "\"solid\""
par Wifi6McsAnalysis.visualizer.routingTableVisualizer lineWidth 2
par Wifi6McsAnalysis.visualizer.routingTableVisualizer lineShift 16
par Wifi6McsAnalysis.visualizer.routingTableVisualizer lineShiftMode "\"normal\""
par Wifi6McsAnalysis.visualizer.routingTableVisualizer lineContactSpacing 3
par Wifi6McsAnalysis.visualizer.routingTableVisualizer lineContactMode "\"rectangular\""
attr enum circular,rectangular
par Wifi6McsAnalysis.visualizer.routingTableVisualizer labelFormat "\"%d/%m -> %g (%n)\""
attr mutable ""
par Wifi6McsAnalysis.visualizer.routingTableVisualizer labelFont "\"<default>, 8px\""
par Wifi6McsAnalysis.visualizer.routingTableVisualizer labelColor "\"black\""
par Wifi6McsAnalysis.visualizer.routingTableVisualizer zIndex 0
par Wifi6McsAnalysis.visualizer.transportRouteVisualizer typename "\"inet.visualizer.canvas.transportlayer.TransportRouteCanvasVisualizer\""
par Wifi6McsAnalysis.visualizer.transportRouteVisualizer visualizationTargetModule "\"^.^\""
par Wifi6McsAnalysis.visualizer.transportRouteVisualizer visualizationSubjectModule "\"^.^\""
par Wifi6McsAnalysis.visualizer.transportRouteVisualizer tags "\"\""
par Wifi6McsAnalysis.visualizer.transportRouteVisualizer displayRoutes false
par Wifi6McsAnalysis.visualizer.transportRouteVisualizer startPathSignal "\"packetReceivedFromUpper\""
par Wifi6McsAnalysis.visualizer.transportRouteVisualizer extendPathSignal "\"packetReceivedFromLower\""
par Wifi6McsAnalysis.visualizer.transportRouteVisualizer endPathSignal "\"packetSentToUpper\""
par Wifi6McsAnalysis.visualizer.transportRouteVisualizer nodeFilter "\"*\""
attr mutable ""
par Wifi6McsAnalysis.visualizer.transportRouteVisualizer packetFilter "(omnetpp::cValueHolder)holder: \"*\""
attr mutable ""
par Wifi6McsAnalysis.visualizer.transportRouteVisualizer lineColor "\"dark\""
par Wifi6McsAnalysis.visualizer.transportRouteVisualizer lineStyle "\"solid\""
par Wifi6McsAnalysis.visualizer.transportRouteVisualizer lineWidth 3
par Wifi6McsAnalysis.visualizer.transportRouteVisualizer lineSmooth false
par Wifi6McsAnalysis.visualizer.transportRouteVisualizer lineShift 16
par Wifi6McsAnalysis.visualizer.transportRouteVisualizer lineShiftMode "\"normal\""
par Wifi6McsAnalysis.visualizer.transportRouteVisualizer lineContactSpacing 3
par Wifi6McsAnalysis.visualizer.transportRouteVisualizer lineContactMode "\"rectangular\""
attr enum circular,rectangular
par Wifi6McsAnalysis.visualizer.transportRouteVisualizer labelFormat "\"%n\""
par Wifi6McsAnalysis.visualizer.transportRouteVisualizer labelFont "\"<default>, 8px\""
par Wifi6McsAnalysis.visualizer.transportRouteVisualizer labelColor "\"\""
par Wifi6McsAnalysis.visualizer.transportRouteVisualizer fadeOutMode "\"realTime\""
attr enum realTime,animationTime,simulationTime
par Wifi6McsAnalysis.visualizer.transportRouteVisualizer fadeOutTime 1s
attr unit s
par Wifi6McsAnalysis.visualizer.transportRouteVisualizer fadeOutAnimationSpeed 0
par Wifi6McsAnalysis.visualizer.transportRouteVisualizer zIndex 4
par Wifi6McsAnalysis.visualizer.transportConnectionVisualizer typename "\"inet.visualizer.canvas.transportlayer.TransportConnectionCanvasVisualizer\""
par Wifi6McsAnalysis.visualizer.transportConnectionVisualizer visualizationTargetModule "\"^.^\""
par Wifi6McsAnalysis.visualizer.transportConnectionVisualizer visualizationSubjectModule "\"^.^\""
par Wifi6McsAnalysis.visualizer.transportConnectionVisualizer tags "\"\""
par Wifi6McsAnalysis.visualizer.transportConnectionVisualizer networkNodeVisualizerModule "\"^.networkNodeVisualizer\""
par Wifi6McsAnalysis.visualizer.transportConnectionVisualizer displayTransportConnections false
par Wifi6McsAnalysis.visualizer.transportConnectionVisualizer sourceNodeFilter "\"*\""
attr mutable ""
par Wifi6McsAnalysis.visualizer.transportConnectionVisualizer sourcePortFilter "\"*\""
attr mutable ""
par Wifi6McsAnalysis.visualizer.transportConnectionVisualizer destinationNodeFilter "\"*\""
attr mutable ""
par Wifi6McsAnalysis.visualizer.transportConnectionVisualizer destinationPortFilter "\"*\""
attr mutable ""
par Wifi6McsAnalysis.visualizer.transportConnectionVisualizer icon "\"misc/marker_s\""
par Wifi6McsAnalysis.visualizer.transportConnectionVisualizer iconColor "\"dark\""
par Wifi6McsAnalysis.visualizer.transportConnectionVisualizer labelFont "\"<default>\""
par Wifi6McsAnalysis.visualizer.transportConnectionVisualizer labelColor "\"black\""
par Wifi6McsAnalysis.visualizer.transportConnectionVisualizer placementHint "\"top\""
par Wifi6McsAnalysis.visualizer.transportConnectionVisualizer placementPriority 0
par Wifi6McsAnalysis.visualizer.transportConnectionVisualizer zIndex 4
par Wifi6McsAnalysis.visualizer.failureProtectionConfigurationVisualizer typename "\"inet.visualizer.canvas.configurator.FailureProtectionConfigurationCanvasVisualizer\""
par Wifi6McsAnalysis.visualizer.failureProtectionConfigurationVisualizer visualizationTargetModule "\"^.^\""
par Wifi6McsAnalysis.visualizer.failureProtectionConfigurationVisualizer visualizationSubjectModule "\"^.^\""
par Wifi6McsAnalysis.visualizer.failureProtectionConfigurationVisualizer tags "\"\""
par Wifi6McsAnalysis.visualizer.failureProtectionConfigurationVisualizer displayTrees false
par Wifi6McsAnalysis.visualizer.failureProtectionConfigurationVisualizer lineColor "\"dark\""
par Wifi6McsAnalysis.visualizer.failureProtectionConfigurationVisualizer lineStyle "\"solid\""
par Wifi6McsAnalysis.visualizer.failureProtectionConfigurationVisualizer lineWidth 3
par Wifi6McsAnalysis.visualizer.failureProtectionConfigurationVisualizer lineSmooth false
par Wifi6McsAnalysis.visualizer.failureProtectionConfigurationVisualizer lineShift 16
par Wifi6McsAnalysis.visualizer.failureProtectionConfigurationVisualizer lineShiftMode "\"normal\""
par Wifi6McsAnalysis.visualizer.failureProtectionConfigurationVisualizer lineContactSpacing 3
par Wifi6McsAnalysis.visualizer.failureProtectionConfigurationVisualizer lineContactMode "\"rectangular\""
attr enum circular,rectangular
par Wifi6McsAnalysis.visualizer.failureProtectionConfigurationVisualizer failureProtectionConfiguratorModule "\"failureProtectionConfigurator\""
par Wifi6McsAnalysis.visualizer.failureProtectionConfigurationVisualizer streamFilter "\"*\""
par Wifi6McsAnalysis.visualizer.failureProtectionConfigurationVisualizer zIndex 3
par Wifi6McsAnalysis.visualizer.streamRedundancyConfigurationVisualizer typename "\"inet.visualizer.canvas.configurator.StreamRedundancyConfigurationCanvasVisualizer\""
par Wifi6McsAnalysis.visualizer.streamRedundancyConfigurationVisualizer visualizationTargetModule "\"^.^\""
par Wifi6McsAnalysis.visualizer.streamRedundancyConfigurationVisualizer visualizationSubjectModule "\"^.^\""
par Wifi6McsAnalysis.visualizer.streamRedundancyConfigurationVisualizer tags "\"\""
par Wifi6McsAnalysis.visualizer.streamRedundancyConfigurationVisualizer displayTrees false
par Wifi6McsAnalysis.visualizer.streamRedundancyConfigurationVisualizer lineColor "\"dark\""
par Wifi6McsAnalysis.visualizer.streamRedundancyConfigurationVisualizer lineStyle "\"solid\""
par Wifi6McsAnalysis.visualizer.streamRedundancyConfigurationVisualizer lineWidth 3
par Wifi6McsAnalysis.visualizer.streamRedundancyConfigurationVisualizer lineSmooth false
par Wifi6McsAnalysis.visualizer.streamRedundancyConfigurationVisualizer lineShift 16
par Wifi6McsAnalysis.visualizer.streamRedundancyConfigurationVisualizer lineShiftMode "\"normal\""
par Wifi6McsAnalysis.visualizer.streamRedundancyConfigurationVisualizer lineContactSpacing 3
par Wifi6McsAnalysis.visualizer.streamRedundancyConfigurationVisualizer lineContactMode "\"rectangular\""
attr enum circular,rectangular
par Wifi6McsAnalysis.visualizer.streamRedundancyConfigurationVisualizer streamRedundancyConfiguratorModule "\"streamRedundancyConfigurator\""
par Wifi6McsAnalysis.visualizer.streamRedundancyConfigurationVisualizer streamFilter "\"*\""
par Wifi6McsAnalysis.visualizer.streamRedundancyConfigurationVisualizer zIndex 3
par Wifi6McsAnalysis.visualizer typename "\"inet.visualizer.canvas.integrated.IntegratedCanvasVisualizer\""
par Wifi6McsAnalysis.configurator typename "\"inet.networklayer.configurator.ipv4.Ipv4NetworkConfigurator\""
par Wifi6McsAnalysis.configurator minLinkWeight 0.001
par Wifi6McsAnalysis.configurator configureIsolatedNetworksSeparatly false
par Wifi6McsAnalysis.configurator config "<config>...</config> at content:1"
par Wifi6McsAnalysis.configurator assignAddresses true
par Wifi6McsAnalysis.configurator assignUniqueAddresses true
par Wifi6McsAnalysis.configurator assignDisjunctSubnetAddresses true
par Wifi6McsAnalysis.configurator addStaticRoutes true
par Wifi6McsAnalysis.configurator addDefaultRoutes true
par Wifi6McsAnalysis.configurator addSubnetRoutes true
par Wifi6McsAnalysis.configurator addDirectRoutes true
par Wifi6McsAnalysis.configurator optimizeRoutes true
par Wifi6McsAnalysis.configurator dumpTopology false
par Wifi6McsAnalysis.configurator dumpLinks false
par Wifi6McsAnalysis.configurator dumpAddresses false
par Wifi6McsAnalysis.configurator dumpRoutes false
par Wifi6McsAnalysis.configurator dumpConfig "\"\""
par Wifi6McsAnalysis.radioMedium.propagation typename "\"inet.physicallayer.wireless.common.propagation.ConstantSpeedPropagation\""
par Wifi6McsAnalysis.radioMedium.propagation propagationSpeed 2.99792e+08mps
attr unit mps
par Wifi6McsAnalysis.radioMedium.propagation ignoreMovementDuringTransmission true
par Wifi6McsAnalysis.radioMedium.propagation ignoreMovementDuringPropagation true
par Wifi6McsAnalysis.radioMedium.propagation ignoreMovementDuringReception true
scalar Wifi6McsAnalysis.radioMedium.propagation "Arrival computation count" 11300
par Wifi6McsAnalysis.radioMedium.analogModel typename "\"inet.physicallayer.wireless.common.analogmodel.packetlevel.ScalarAnalogModel\""
par Wifi6McsAnalysis.radioMedium.analogModel ignorePartialInterference false
par Wifi6McsAnalysis.radioMedium.backgroundNoise typename "\"inet.physicallayer.wireless.common.backgroundnoise.IsotropicScalarBackgroundNoise\""
par Wifi6McsAnalysis.radioMedium.backgroundNoise power -110dBm
attr unit dBm
par Wifi6McsAnalysis.radioMedium.backgroundNoise bandwidth "nan Hz"
attr unit Hz
par Wifi6McsAnalysis.radioMedium.pathLoss typename "\"inet.physicallayer.wireless.common.pathloss.FreeSpacePathLoss\""
par Wifi6McsAnalysis.radioMedium.pathLoss alpha 2
par Wifi6McsAnalysis.radioMedium.pathLoss systemLoss 0dB
attr unit dB
par Wifi6McsAnalysis.radioMedium.mediumLimitCache typename "\"inet.physicallayer.wireless.common.medium.MediumLimitCache\""
par Wifi6McsAnalysis.radioMedium.mediumLimitCache centerFrequency 2.4e+09Hz
attr unit Hz
par Wifi6McsAnalysis.radioMedium.mediumLimitCache maxSpeed "nan mps"
attr unit mps
par Wifi6McsAnalysis.radioMedium.mediumLimitCache maxTransmissionPower "nan W"
attr unit W
par Wifi6McsAnalysis.radioMedium.mediumLimitCache minInterferencePower -110dBm
attr unit dBm
par Wifi6McsAnalysis.radioMedium.mediumLimitCache minReceptionPower -85dBm
attr unit dBm
par Wifi6McsAnalysis.radioMedium.mediumLimitCache maxAntennaGain 0dB
attr unit dB
par Wifi6McsAnalysis.radioMedium.mediumLimitCache minInterferenceTime 1e-12s
attr unit s
par Wifi6McsAnalysis.radioMedium.mediumLimitCache maxTransmissionDuration 0.01s
attr unit s
par Wifi6McsAnalysis.radioMedium.mediumLimitCache maxCommunicationRange "nan m"
attr unit m
par Wifi6McsAnalysis.radioMedium.mediumLimitCache maxInterferenceRange "nan m"
attr unit m
par Wifi6McsAnalysis.radioMedium.communicationCache typename "\"inet.physicallayer.wireless.common.communicationcache.VectorCommunicationCache\""
par Wifi6McsAnalysis.radioMedium typename "\"inet.physicallayer.wireless.ieee80211.packetlevel.Ieee80211ScalarRadioMedium\""
par Wifi6McsAnalysis.radioMedium physicalEnvironmentModule "\"physicalEnvironment\""
par Wifi6McsAnalysis.radioMedium signalAnalogRepresentation "\"scalar\""
attr enum unitDisk,scalar,dimensional
par Wifi6McsAnalysis.radioMedium rangeFilter "\"\""
par Wifi6McsAnalysis.radioMedium radioModeFilter false
par Wifi6McsAnalysis.radioMedium listeningFilter false
par Wifi6McsAnalysis.radioMedium macAddressFilter false
par Wifi6McsAnalysis.radioMedium recordTransmissionLog false
par Wifi6McsAnalysis.radioMedium recordReceptionLog false
scalar Wifi6McsAnalysis.radioMedium "transmission count" 1130
scalar Wifi6McsAnalysis.radioMedium "signal send count" 11300
scalar Wifi6McsAnalysis.radioMedium "reception computation count" 11300
scalar Wifi6McsAnalysis.radioMedium "interference computation count" 31330
scalar Wifi6McsAnalysis.radioMedium "reception decision computation count" 9308
scalar Wifi6McsAnalysis.radioMedium "listening decision computation count" 12452
scalar Wifi6McsAnalysis.radioMedium "reception cache hit" 85.629443109127
attr unit %
scalar Wifi6McsAnalysis.radioMedium "interference cache hit" 66.666666666667
attr unit %
scalar Wifi6McsAnalysis.radioMedium "noise cache hit" 0
attr unit %
scalar Wifi6McsAnalysis.radioMedium "snir cache hit" 50
attr unit %
scalar Wifi6McsAnalysis.radioMedium "reception decision cache hit" 50
attr unit %
scalar Wifi6McsAnalysis.radioMedium "reception result cache hit" 0
attr unit %
par Wifi6McsAnalysis.router.interfaceTable typename "\"inet.networklayer.common.InterfaceTable\""
par Wifi6McsAnalysis.router.interfaceTable displayAddresses false
par Wifi6McsAnalysis.router.cb typename "\"inet.common.MessageDispatcher\""
par Wifi6McsAnalysis.router.cb displayStringTextFormat "\"processed %p pk (%l)\""
par Wifi6McsAnalysis.router.cb forwardServiceRegistration true
par Wifi6McsAnalysis.router.cb forwardProtocolRegistration true
par Wifi6McsAnalysis.router.bl typename "\"inet.common.MessageDispatcher\""
par Wifi6McsAnalysis.router.bl displayStringTextFormat "\"processed %p pk (%l)\""
par Wifi6McsAnalysis.router.bl forwardServiceRegistration true
par Wifi6McsAnalysis.router.bl forwardProtocolRegistration true
par Wifi6McsAnalysis.router.li typename "\"inet.common.MessageDispatcher\""
par Wifi6McsAnalysis.router.li displayStringTextFormat "\"processed %p pk (%l)\""
par Wifi6McsAnalysis.router.li forwardServiceRegistration true
par Wifi6McsAnalysis.router.li forwardProtocolRegistration true
par Wifi6McsAnalysis.router.lo[0].upperLayerIn.channel typename "\"ned.IdealChannel\""
par Wifi6McsAnalysis.router.lo[0].lo.upperLayerOut.channel typename "\"ned.IdealChannel\""
par Wifi6McsAnalysis.router.lo[0].lo typename "\"inet.linklayer.loopback.Loopback\""
par Wifi6McsAnalysis.router.lo[0].lo interfaceTableModule "\"Wifi6McsAnalysis.router.interfaceTable\""
par Wifi6McsAnalysis.router.lo[0].lo mtu 4470B
attr unit B
scalar Wifi6McsAnalysis.router.lo[0].lo rcvdPkFromHl:count 0
attr interpolationmode none
attr recordingmode count
attr source packetReceivedFromUpper
attr title "packets received from higher layer, count"
scalar Wifi6McsAnalysis.router.lo[0].lo rcvdPkFromHl:sum(packetBytes) 0
attr interpolationmode none
attr recordingmode sum(packetBytes)
attr source packetReceivedFromUpper
attr title "packets received from higher layer, sum(packetBytes)"
scalar Wifi6McsAnalysis.router.lo[0].lo passedUpPk:count 0
attr interpolationmode none
attr recordingmode count
attr source packetSentToUpper
attr title "packets passed to higher layer, count"
scalar Wifi6McsAnalysis.router.lo[0].lo passedUpPk:sum(packetBytes) 0
attr interpolationmode none
attr recordingmode sum(packetBytes)
attr source packetSentToUpper
attr title "packets passed to higher layer, sum(packetBytes)"
par Wifi6McsAnalysis.router.lo[0] typename "\"inet.linklayer.loopback.LoopbackInterface\""
par Wifi6McsAnalysis.router.lo[0] displayStringTextFormat "\"%a (%i)\\n%m\""
par Wifi6McsAnalysis.router.lo[0] recordPcap false
par Wifi6McsAnalysis.router.lo[0] numPcapRecorders 0
par Wifi6McsAnalysis.router.lo[0] interfaceTableModule "\"Wifi6McsAnalysis.router.interfaceTable\""
scalar Wifi6McsAnalysis.router.lo[0] packetDropInterfaceDown:count 0
attr interpolationmode none
attr recordingmode count
attr source packetDropReasonIsInterfaceDown(packetDropped)
attr title "packet drops: interface down, count"
scalar Wifi6McsAnalysis.router.lo[0] packetDropInterfaceDown:sum(packetBytes) 0
attr interpolationmode none
attr recordingmode sum(packetBytes)
attr source packetDropReasonIsInterfaceDown(packetDropped)
attr title "packet drops: interface down, sum(packetBytes)"
scalar Wifi6McsAnalysis.router.lo[0] packetDropNoCarrier:count 0
attr interpolationmode none
attr recordingmode count
attr source packetDropReasonIsNoCarrier(packetDropped)
attr title "packet drops: no carrier, count"
scalar Wifi6McsAnalysis.router.lo[0] packetDropNoCarrier:sum(packetBytes) 0
attr interpolationmode none
attr recordingmode sum(packetBytes)
attr source packetDropReasonIsNoCarrier(packetDropped)
attr title "packet drops: no carrier, sum(packetBytes)"
par Wifi6McsAnalysis.router.ipv4.transportIn.channel typename "\"ned.IdealChannel\""
par Wifi6McsAnalysis.router.ipv4.up.out[0].channel typename "\"ned.IdealChannel\""
par Wifi6McsAnalysis.router.ipv4.lp.out[2].channel typename "\"ned.IdealChannel\""
par Wifi6McsAnalysis.router.ipv4.ifIn.channel typename "\"ned.IdealChannel\""
par Wifi6McsAnalysis.router.ipv4.configurator typename "\"inet.networklayer.configurator.ipv4.Ipv4NodeConfigurator\""
par Wifi6McsAnalysis.router.ipv4.configurator interfaceTableModule "\"Wifi6McsAnalysis.router.interfaceTable\""
par Wifi6McsAnalysis.router.ipv4.configurator routingTableModule "\"Wifi6McsAnalysis.router.ipv4.routingTable\""
par Wifi6McsAnalysis.router.ipv4.configurator networkConfiguratorModule "\"configurator\""
par Wifi6McsAnalysis.router.ipv4.configurator configureRoutingTable true
par Wifi6McsAnalysis.router.ipv4.routingTable typename "\"inet.networklayer.ipv4.Ipv4RoutingTable\""
par Wifi6McsAnalysis.router.ipv4.routingTable interfaceTableModule "\"Wifi6McsAnalysis.router.interfaceTable\""
par Wifi6McsAnalysis.router.ipv4.routingTable routerId "\"auto\""
par Wifi6McsAnalysis.router.ipv4.routingTable netmaskRoutes "\"*\""
par Wifi6McsAnalysis.router.ipv4.routingTable forwarding true
par Wifi6McsAnalysis.router.ipv4.routingTable multicastForwarding false
par Wifi6McsAnalysis.router.ipv4.routingTable useAdminDist false
par Wifi6McsAnalysis.router.ipv4.routingTable routingFile "\"\""
par Wifi6McsAnalysis.router.ipv4.natTable typename "\"inet.networklayer.ipv4.Ipv4NatTable\""
par Wifi6McsAnalysis.router.ipv4.natTable networkProtocolModule "\"^.ip\""
par Wifi6McsAnalysis.router.ipv4.natTable config "<config/> at content:1"
par Wifi6McsAnalysis.router.ipv4.up typename "\"inet.common.MessageDispatcher\""
par Wifi6McsAnalysis.router.ipv4.up displayStringTextFormat "\"processed %p pk (%l)\""
par Wifi6McsAnalysis.router.ipv4.up forwardServiceRegistration true
par Wifi6McsAnalysis.router.ipv4.up forwardProtocolRegistration true
par Wifi6McsAnalysis.router.ipv4.igmp typename "\"inet.networklayer.ipv4.Igmpv2\""
par Wifi6McsAnalysis.router.ipv4.igmp interfaceTableModule "\"Wifi6McsAnalysis.router.interfaceTable\""
par Wifi6McsAnalysis.router.ipv4.igmp routingTableModule "\"Wifi6McsAnalysis.router.ipv4.routingTable\""
par Wifi6McsAnalysis.router.ipv4.igmp crcMode "\"declared\""
attr enum declared,computed
par Wifi6McsAnalysis.router.ipv4.igmp enabled true
par Wifi6McsAnalysis.router.ipv4.igmp robustnessVariable 2
par Wifi6McsAnalysis.router.ipv4.igmp queryInterval 125s
attr unit s
par Wifi6McsAnalysis.router.ipv4.igmp queryResponseInterval 10s
attr unit s
par Wifi6McsAnalysis.router.ipv4.igmp groupMembershipInterval 260s
attr unit s
par Wifi6McsAnalysis.router.ipv4.igmp otherQuerierPresentInterval 255s
attr unit s
par Wifi6McsAnalysis.router.ipv4.igmp startupQueryInterval 31.25s
attr unit s
par Wifi6McsAnalysis.router.ipv4.igmp startupQueryCount 2
par Wifi6McsAnalysis.router.ipv4.igmp lastMemberQueryInterval 1s
attr unit s
par Wifi6McsAnalysis.router.ipv4.igmp lastMemberQueryCount 2
par Wifi6McsAnalysis.router.ipv4.igmp unsolicitedReportInterval 10s
attr unit s
par Wifi6McsAnalysis.router.ipv4.icmp typename "\"inet.networklayer.ipv4.Icmp\""
par Wifi6McsAnalysis.router.ipv4.icmp interfaceTableModule "\"Wifi6McsAnalysis.router.interfaceTable\""
par Wifi6McsAnalysis.router.ipv4.icmp routingTableModule "\"Wifi6McsAnalysis.router.ipv4.routingTable\""
par Wifi6McsAnalysis.router.ipv4.icmp crcMode "\"declared\""
attr enum declared,computed
attr mutable ""
par Wifi6McsAnalysis.router.ipv4.icmp quoteLength 8B
attr mutable ""
attr unit B
par Wifi6McsAnalysis.router.ipv4.mp typename "\"inet.common.MessageDispatcher\""
par Wifi6McsAnalysis.router.ipv4.mp displayStringTextFormat "\"processed %p pk (%l)\""
par Wifi6McsAnalysis.router.ipv4.mp forwardServiceRegistration true
par Wifi6McsAnalysis.router.ipv4.mp forwardProtocolRegistration true
par Wifi6McsAnalysis.router.ipv4.ip typename "\"inet.networklayer.ipv4.Ipv4\""
par Wifi6McsAnalysis.router.ipv4.ip interfaceTableModule "\"Wifi6McsAnalysis.router.interfaceTable\""
par Wifi6McsAnalysis.router.ipv4.ip routingTableModule "\"Wifi6McsAnalysis.router.ipv4.routingTable\""
par Wifi6McsAnalysis.router.ipv4.ip arpModule "\"Wifi6McsAnalysis.router.ipv4.arp\""
par Wifi6McsAnalysis.router.ipv4.ip icmpModule "\"Wifi6McsAnalysis.router.ipv4.icmp\""
par Wifi6McsAnalysis.router.ipv4.ip crcMode "\"declared\""
attr enum declared,computed
par Wifi6McsAnalysis.router.ipv4.ip timeToLive 32
par Wifi6McsAnalysis.router.ipv4.ip multicastTimeToLive 32
par Wifi6McsAnalysis.router.ipv4.ip fragmentTimeout 60s
attr unit s
par Wifi6McsAnalysis.router.ipv4.ip limitedBroadcast false
par Wifi6McsAnalysis.router.ipv4.ip directBroadcastInterfaces "\"\""
scalar Wifi6McsAnalysis.router.ipv4.ip packetDropAddressResolutionFailed:count 0
attr interpolationmode none
attr recordingmode count
attr source packetDropReasonIsAddressResolutionFailed(packetDropped)
attr title "packet drop: address resolution failed, count"
scalar Wifi6McsAnalysis.router.ipv4.ip packetDropAddressResolutionFailed:sum(packetBytes) 0
attr interpolationmode none
attr recordingmode sum(packetBytes)
attr source packetDropReasonIsAddressResolutionFailed(packetDropped)
attr title "packet drop: address resolution failed, sum(packetBytes)"
scalar Wifi6McsAnalysis.router.ipv4.ip packetDropHopLimitReached:count 0
attr interpolationmode none
attr recordingmode count
attr source packetDropReasonIsHopLimitReached(packetDropped)
attr title "packet drop: hop limit reached, count"
scalar Wifi6McsAnalysis.router.ipv4.ip packetDropHopLimitReached:sum(packetBytes) 0
attr interpolationmode none
attr recordingmode sum(packetBytes)
attr source packetDropReasonIsHopLimitReached(packetDropped)
attr title "packet drop: hop limit reached, sum(packetBytes)"
scalar Wifi6McsAnalysis.router.ipv4.ip packetDropForwardingDisabled:count 0
attr interpolationmode none
attr recordingmode count
attr source packetDropReasonIsForwardingDisabled(packetDropped)
attr title "packet drop: forwarding disabled, count"
scalar Wifi6McsAnalysis.router.ipv4.ip packetDropForwardingDisabled:sum(packetBytes) 0
attr interpolationmode none
attr recordingmode sum(packetBytes)
attr source packetDropReasonIsForwardingDisabled(packetDropped)
attr title "packet drop: forwarding disabled, sum(packetBytes)"
scalar Wifi6McsAnalysis.router.ipv4.ip packetDropNoInterfaceFound:count 0
attr interpolationmode none
attr recordingmode count
attr source packetDropReasonIsNoInterfaceFound(packetDropped)
attr title "packet drop: no interface found, count"
scalar Wifi6McsAnalysis.router.ipv4.ip packetDropNoInterfaceFound:sum(packetBytes) 0
attr interpolationmode none
attr recordingmode sum(packetBytes)
attr source packetDropReasonIsNoInterfaceFound(packetDropped)
attr title "packet drop: no interface found, sum(packetBytes)"
scalar Wifi6McsAnalysis.router.ipv4.ip packetDropNoRouteFound:count 0
attr interpolationmode none
attr recordingmode count
attr source packetDropReasonIsNoRouteFound(packetDropped)
attr title "packet drop: no route found, count"
scalar Wifi6McsAnalysis.router.ipv4.ip packetDropNoRouteFound:sum(packetBytes) 0
attr interpolationmode none
attr recordingmode sum(packetBytes)
attr source packetDropReasonIsNoRouteFound(packetDropped)
attr title "packet drop: no route found, sum(packetBytes)"
scalar Wifi6McsAnalysis.router.ipv4.ip packetDropUndefined:count 0
attr interpolationmode none
attr recordingmode count
attr source packetDropReasonIsUndefined(packetDropped)
attr title "packet drop: undefined, count"
scalar Wifi6McsAnalysis.router.ipv4.ip packetDropUndefined:sum(packetBytes) 0
attr interpolationmode none
attr recordingmode sum(packetBytes)
attr source packetDropReasonIsUndefined(packetDropped)
attr title "packet drop: undefined, sum(packetBytes)"
par Wifi6McsAnalysis.router.ipv4.arp typename "\"inet.networklayer.arp.ipv4.Arp\""
par Wifi6McsAnalysis.router.ipv4.arp interfaceTableModule "\"Wifi6McsAnalysis.router.interfaceTable\""
par Wifi6McsAnalysis.router.ipv4.arp routingTableModule "\"Wifi6McsAnalysis.router.ipv4.routingTable\""
par Wifi6McsAnalysis.router.ipv4.arp retryTimeout 1s
attr unit s
par Wifi6McsAnalysis.router.ipv4.arp retryCount 3
par Wifi6McsAnalysis.router.ipv4.arp cacheTimeout 120s
attr unit s
par Wifi6McsAnalysis.router.ipv4.arp proxyArpInterfaces "\"*\""
scalar Wifi6McsAnalysis.router.ipv4.arp arpReplySent:count 0
attr recordingmode count
attr source arpReplySent
attr title "ARP replies sent, count"
scalar Wifi6McsAnalysis.router.ipv4.arp arpReplySent:sum(packetBytes) 0
attr recordingmode sum(packetBytes)
attr source arpReplySent
attr title "ARP replies sent, sum(packetBytes)"
scalar Wifi6McsAnalysis.router.ipv4.arp arpRequestSent:count 0
attr recordingmode count
attr source arpRequestSent
attr title "ARP request sent, count"
scalar Wifi6McsAnalysis.router.ipv4.arp arpRequestSent:sum(packetBytes) 0
attr recordingmode sum(packetBytes)
attr source arpRequestSent
attr title "ARP request sent, sum(packetBytes)"
scalar Wifi6McsAnalysis.router.ipv4.arp arpResolutionFailed:count 0
attr recordingmode count
attr title "ARP failed resolutions, count"
scalar Wifi6McsAnalysis.router.ipv4.arp arpResolutionCompleted:count 0
attr recordingmode count
attr title "ARP completed resolutions, count"
scalar Wifi6McsAnalysis.router.ipv4.arp arpResolutionInitiated:count 0
attr recordingmode count
attr title "ARP initiated resolutions, count"
par Wifi6McsAnalysis.router.ipv4.lp typename "\"inet.common.MessageDispatcher\""
par Wifi6McsAnalysis.router.ipv4.lp displayStringTextFormat "\"processed %p pk (%l)\""
par Wifi6McsAnalysis.router.ipv4.lp forwardServiceRegistration true
par Wifi6McsAnalysis.router.ipv4.lp forwardProtocolRegistration true
par Wifi6McsAnalysis.router.ipv4 typename "\"inet.networklayer.ipv4.Ipv4NetworkLayer\""
par Wifi6McsAnalysis.router.ipv4 forwarding true
par Wifi6McsAnalysis.router.ipv4 multicastForwarding false
par Wifi6McsAnalysis.router.ipv4 interfaceTableModule "\"Wifi6McsAnalysis.router.interfaceTable\""
par Wifi6McsAnalysis.router.ipv4 displayStringTextFormat "\"%i\""
par Wifi6McsAnalysis.router.nl typename "\"inet.common.MessageDispatcher\""
par Wifi6McsAnalysis.router.nl displayStringTextFormat "\"processed %p pk (%l)\""
par Wifi6McsAnalysis.router.nl forwardServiceRegistration true
par Wifi6McsAnalysis.router.nl forwardProtocolRegistration true
par Wifi6McsAnalysis.router.tn typename "\"inet.common.MessageDispatcher\""
par Wifi6McsAnalysis.router.tn displayStringTextFormat "\"processed %p pk (%l)\""
par Wifi6McsAnalysis.router.tn forwardServiceRegistration true
par Wifi6McsAnalysis.router.tn forwardProtocolRegistration true
par Wifi6McsAnalysis.router.at typename "\"inet.common.MessageDispatcher\""
par Wifi6McsAnalysis.router.at displayStringTextFormat "\"processed %p pk (%l)\""
par Wifi6McsAnalysis.router.at forwardServiceRegistration true
par Wifi6McsAnalysis.router.at forwardProtocolRegistration true
par Wifi6McsAnalysis.router typename "\"inet.node.inet.Router\""
par Wifi6McsAnalysis.router hasStatus false
par Wifi6McsAnalysis.router osgModel "\"\""
par Wifi6McsAnalysis.router osgModelColor "\"\""
par Wifi6McsAnalysis.router canvasImage "\"\""
par Wifi6McsAnalysis.router canvasImageColor "\"\""
par Wifi6McsAnalysis.router recordPcap false
par Wifi6McsAnalysis.router numPcapRecorders 0
par Wifi6McsAnalysis.router numLoInterfaces 1
par Wifi6McsAnalysis.router numWlanInterfaces 0
par Wifi6McsAnalysis.router numEthInterfaces 0
par Wifi6McsAnalysis.router numPppInterfaces 0
par Wifi6McsAnalysis.router numTunInterfaces 0
par Wifi6McsAnalysis.router numVirtInterfaces 0
par Wifi6McsAnalysis.router fcsMode "\"declared\""
attr enum declared,computed
par Wifi6McsAnalysis.router hasIpv4 true
par Wifi6McsAnalysis.router hasIpv6 false
par Wifi6McsAnalysis.router hasGn false
par Wifi6McsAnalysis.router forwarding true
par Wifi6McsAnalysis.router multicastForwarding false
par Wifi6McsAnalysis.router hasUdp false
par Wifi6McsAnalysis.router hasTcp false
par Wifi6McsAnalysis.router hasSctp false
par Wifi6McsAnalysis.router numApps 0
par Wifi6McsAnalysis.router hasEigrp false
par Wifi6McsAnalysis.router hasOspf false
par Wifi6McsAnalysis.router hasRip false
par Wifi6McsAnalysis.router hasBgp false
par Wifi6McsAnalysis.router hasPim false
par Wifi6McsAnalysis.router hasDhcp false
par Wifi6McsAnalysis.accessPoint.radioIn[0].channel typename "\"ned.IdealChannel\""
par Wifi6McsAnalysis.accessPoint.interfaceTable typename "\"inet.networklayer.common.InterfaceTable\""
par Wifi6McsAnalysis.accessPoint.interfaceTable displayAddresses false
par Wifi6McsAnalysis.accessPoint.macTable typename "\"inet.linklayer.ethernet.common.MacForwardingTable\""
par Wifi6McsAnalysis.accessPoint.macTable agingTime 120s
attr unit s
par Wifi6McsAnalysis.accessPoint.macTable forwardingTable []
attr mutable ""
par Wifi6McsAnalysis.accessPoint.macTable forwardingTableFile "\"\""
par Wifi6McsAnalysis.accessPoint.macTable interfaceTableModule "\"Wifi6McsAnalysis.accessPoint.interfaceTable\""
par Wifi6McsAnalysis.accessPoint.macTable displayStringTextFormat "\"addr: %a\\nvlan: %v\""
par Wifi6McsAnalysis.accessPoint.mobility typename "\"inet.mobility.static.StationaryMobility\""
par Wifi6McsAnalysis.accessPoint.mobility subjectModule "\"^\""
par Wifi6McsAnalysis.accessPoint.mobility coordinateSystemModule "\"\""
par Wifi6McsAnalysis.accessPoint.mobility displayStringTextFormat "\"p: %p\\nv: %v\""
attr mutable ""
par Wifi6McsAnalysis.accessPoint.mobility updateDisplayString true
par Wifi6McsAnalysis.accessPoint.mobility constraintAreaMinX "-inf m"
attr unit m
par Wifi6McsAnalysis.accessPoint.mobility constraintAreaMinY "-inf m"
attr unit m
par Wifi6McsAnalysis.accessPoint.mobility constraintAreaMinZ "-inf m"
attr unit m
par Wifi6McsAnalysis.accessPoint.mobility constraintAreaMaxX "inf m"
attr unit m
par Wifi6McsAnalysis.accessPoint.mobility constraintAreaMaxY "inf m"
attr unit m
par Wifi6McsAnalysis.accessPoint.mobility constraintAreaMaxZ "inf m"
attr unit m
par Wifi6McsAnalysis.accessPoint.mobility initialX "nan m"
attr unit m
par Wifi6McsAnalysis.accessPoint.mobility initialY "nan m"
attr unit m
par Wifi6McsAnalysis.accessPoint.mobility initialZ 0m
attr unit m
par Wifi6McsAnalysis.accessPoint.mobility initialLatitude "nan deg"
attr unit deg
par Wifi6McsAnalysis.accessPoint.mobility initialLongitude "nan deg"
attr unit deg
par Wifi6McsAnalysis.accessPoint.mobility initialAltitude 0m
attr unit m
par Wifi6McsAnalysis.accessPoint.mobility initialHeading 0deg
attr unit deg
par Wifi6McsAnalysis.accessPoint.mobility initialElevation 0deg
attr unit deg
par Wifi6McsAnalysis.accessPoint.mobility initialBank 0deg
attr unit deg
par Wifi6McsAnalysis.accessPoint.mobility initFromDisplayString true
par Wifi6McsAnalysis.accessPoint.mobility updateFromDisplayString true
par Wifi6McsAnalysis.accessPoint.li typename "\"inet.common.MessageDispatcher\""
par Wifi6McsAnalysis.accessPoint.li displayStringTextFormat "\"processed %p pk (%l)\""
par Wifi6McsAnalysis.accessPoint.li forwardServiceRegistration true
par Wifi6McsAnalysis.accessPoint.li forwardProtocolRegistration true
par Wifi6McsAnalysis.accessPoint.wlan[0].radioIn.channel typename "\"ned.IdealChannel\""
par Wifi6McsAnalysis.accessPoint.wlan[0].llc.upperLayerOut.channel typename "\"ned.IdealChannel\""
par Wifi6McsAnalysis.accessPoint.wlan[0].upperLayerIn.channel typename "\"ned.IdealChannel\""
par Wifi6McsAnalysis.accessPoint.wlan[0].mib typename "\"inet.linklayer.ieee80211.mib.Ieee80211Mib\""
par Wifi6McsAnalysis.accessPoint.wlan[0].llc typename "\"inet.linklayer.ieee80211.portal.Ieee80211Portal\""
par Wifi6McsAnalysis.accessPoint.wlan[0].llc fcsMode "\"declared\""
attr enum declared,computed
par Wifi6McsAnalysis.accessPoint.wlan[0].mgmt typename "\"inet.linklayer.ieee80211.mgmt.Ieee80211MgmtAp\""
par Wifi6McsAnalysis.accessPoint.wlan[0].mgmt ssid "\"SSID\""
par Wifi6McsAnalysis.accessPoint.wlan[0].mgmt beaconInterval 0.1s
attr unit s
par Wifi6McsAnalysis.accessPoint.wlan[0].mgmt numAuthSteps 4
par Wifi6McsAnalysis.accessPoint.wlan[0].mgmt interfaceTableModule "\"Wifi6McsAnalysis.accessPoint.interfaceTable\""
par Wifi6McsAnalysis.accessPoint.wlan[0].mgmt radioModule "\"^.radio\""
par Wifi6McsAnalysis.accessPoint.wlan[0].mgmt mibModule "\"Wifi6McsAnalysis.accessPoint.wlan[0].mib\""
par Wifi6McsAnalysis.accessPoint.wlan[0].mgmt macModule "\"Wifi6McsAnalysis.accessPoint.wlan[0].mac\""
par Wifi6McsAnalysis.accessPoint.wlan[0].mac.dcf.channelAccess.pendingQueue typename "\"inet.linklayer.ieee80211.mac.queue.PendingQueue\""
par Wifi6McsAnalysis.accessPoint.wlan[0].mac.dcf.channelAccess.pendingQueue displayStringTextFormat "\"contains %p pk (%l) pushed %u\\npulled %o removed %r dropped %d\""
par Wifi6McsAnalysis.accessPoint.wlan[0].mac.dcf.channelAccess.pendingQueue packetCapacity 100
par Wifi6McsAnalysis.accessPoint.wlan[0].mac.dcf.channelAccess.pendingQueue dataCapacity -1b
attr unit b
par Wifi6McsAnalysis.accessPoint.wlan[0].mac.dcf.channelAccess.pendingQueue dropperClass "\"inet::queueing::PacketAtCollectionEndDropper\""
par Wifi6McsAnalysis.accessPoint.wlan[0].mac.dcf.channelAccess.pendingQueue comparatorClass "\"inet::ieee80211::MgmtOverDataComparator\""
par Wifi6McsAnalysis.accessPoint.wlan[0].mac.dcf.channelAccess.pendingQueue bufferModule "\"\""
scalar Wifi6McsAnalysis.accessPoint.wlan[0].mac.dcf.channelAccess.pendingQueue queueLength:last 0
attr autoWarmupFilter false
attr interpolationmode sample-hold
attr recordingmode last
attr source "warmup(atomic(constant0(packetPushEnded) + count(packetPushStarted) - count(packetPulled) - count(packetRemoved) - count(packetDropped)))"
attr title "queue length, last"
attr unit pk
scalar Wifi6McsAnalysis.accessPoint.wlan[0].mac.dcf.channelAccess.pendingQueue queueLength:max 7
attr autoWarmupFilter false
attr interpolationmode sample-hold
attr recordingmode max
attr source "warmup(atomic(constant0(packetPushEnded) + count(packetPushStarted) - count(packetPulled) - count(packetRemoved) - count(packetDropped)))"
attr title "queue length, max"
attr unit pk
scalar Wifi6McsAnalysis.accessPoint.wlan[0].mac.dcf.channelAccess.pendingQueue queueLength:timeavg 0.0159554374599
attr autoWarmupFilter false
attr interpolationmode sample-hold
attr recordingmode timeavg
[...]
attr mutable ""
par Wifi6McsAnalysis.client9.wlan[0] protocol "\"\""
par Wifi6McsAnalysis.client9.wlan[0] bitrate -1bps
attr unit bps
scalar Wifi6McsAnalysis.client9.wlan[0] packetDropInterfaceDown:count 0
attr interpolationmode none
attr recordingmode count
attr source packetDropReasonIsInterfaceDown(packetDropped)
attr title "packet drops: interface down, count"
scalar Wifi6McsAnalysis.client9.wlan[0] packetDropInterfaceDown:sum(packetBytes) 0
attr interpolationmode none
attr recordingmode sum(packetBytes)
attr source packetDropReasonIsInterfaceDown(packetDropped)
attr title "packet drops: interface down, sum(packetBytes)"
scalar Wifi6McsAnalysis.client9.wlan[0] packetDropNoCarrier:count 0
attr interpolationmode none
attr recordingmode count
attr source packetDropReasonIsNoCarrier(packetDropped)
attr title "packet drops: no carrier, count"
scalar Wifi6McsAnalysis.client9.wlan[0] packetDropNoCarrier:sum(packetBytes) 0
attr interpolationmode none
attr recordingmode sum(packetBytes)
attr source packetDropReasonIsNoCarrier(packetDropped)
attr title "packet drops: no carrier, sum(packetBytes)"
par Wifi6McsAnalysis.client9.ipv4.transportIn.channel typename "\"ned.IdealChannel\""
par Wifi6McsAnalysis.client9.ipv4.up.out[0].channel typename "\"ned.IdealChannel\""
par Wifi6McsAnalysis.client9.ipv4.lp.out[2].channel typename "\"ned.IdealChannel\""
par Wifi6McsAnalysis.client9.ipv4.ifIn.channel typename "\"ned.IdealChannel\""
par Wifi6McsAnalysis.client9.ipv4.configurator typename "\"inet.networklayer.configurator.ipv4.Ipv4NodeConfigurator\""
par Wifi6McsAnalysis.client9.ipv4.configurator interfaceTableModule "\"Wifi6McsAnalysis.client9.interfaceTable\""
par Wifi6McsAnalysis.client9.ipv4.configurator routingTableModule "\"Wifi6McsAnalysis.client9.ipv4.routingTable\""
par Wifi6McsAnalysis.client9.ipv4.configurator networkConfiguratorModule "\"configurator\""
par Wifi6McsAnalysis.client9.ipv4.configurator configureRoutingTable true
par Wifi6McsAnalysis.client9.ipv4.routingTable typename "\"inet.networklayer.ipv4.Ipv4RoutingTable\""
par Wifi6McsAnalysis.client9.ipv4.routingTable interfaceTableModule "\"Wifi6McsAnalysis.client9.interfaceTable\""
par Wifi6McsAnalysis.client9.ipv4.routingTable routerId "\"auto\""
par Wifi6McsAnalysis.client9.ipv4.routingTable netmaskRoutes "\"*\""
par Wifi6McsAnalysis.client9.ipv4.routingTable forwarding false
par Wifi6McsAnalysis.client9.ipv4.routingTable multicastForwarding false
par Wifi6McsAnalysis.client9.ipv4.routingTable useAdminDist false
par Wifi6McsAnalysis.client9.ipv4.routingTable routingFile "\"\""
par Wifi6McsAnalysis.client9.ipv4.natTable typename "\"inet.networklayer.ipv4.Ipv4NatTable\""
par Wifi6McsAnalysis.client9.ipv4.natTable networkProtocolModule "\"^.ip\""
par Wifi6McsAnalysis.client9.ipv4.natTable config "<config/> at content:1"
par Wifi6McsAnalysis.client9.ipv4.up typename "\"inet.common.MessageDispatcher\""
par Wifi6McsAnalysis.client9.ipv4.up displayStringTextFormat "\"processed %p pk (%l)\""
par Wifi6McsAnalysis.client9.ipv4.up forwardServiceRegistration true
par Wifi6McsAnalysis.client9.ipv4.up forwardProtocolRegistration true
par Wifi6McsAnalysis.client9.ipv4.igmp typename "\"inet.networklayer.ipv4.Igmpv2\""
par Wifi6McsAnalysis.client9.ipv4.igmp interfaceTableModule "\"Wifi6McsAnalysis.client9.interfaceTable\""
par Wifi6McsAnalysis.client9.ipv4.igmp routingTableModule "\"Wifi6McsAnalysis.client9.ipv4.routingTable\""
par Wifi6McsAnalysis.client9.ipv4.igmp crcMode "\"declared\""
attr enum declared,computed
par Wifi6McsAnalysis.client9.ipv4.igmp enabled true
par Wifi6McsAnalysis.client9.ipv4.igmp robustnessVariable 2
par Wifi6McsAnalysis.client9.ipv4.igmp queryInterval 125s
attr unit s
par Wifi6McsAnalysis.client9.ipv4.igmp queryResponseInterval 10s
attr unit s
par Wifi6McsAnalysis.client9.ipv4.igmp groupMembershipInterval 260s
attr unit s
par Wifi6McsAnalysis.client9.ipv4.igmp otherQuerierPresentInterval 255s
attr unit s
par Wifi6McsAnalysis.client9.ipv4.igmp startupQueryInterval 31.25s
attr unit s
par Wifi6McsAnalysis.client9.ipv4.igmp startupQueryCount 2
par Wifi6McsAnalysis.client9.ipv4.igmp lastMemberQueryInterval 1s
attr unit s
par Wifi6McsAnalysis.client9.ipv4.igmp lastMemberQueryCount 2
par Wifi6McsAnalysis.client9.ipv4.igmp unsolicitedReportInterval 10s
attr unit s
par Wifi6McsAnalysis.client9.ipv4.icmp typename "\"inet.networklayer.ipv4.Icmp\""
par Wifi6McsAnalysis.client9.ipv4.icmp interfaceTableModule "\"Wifi6McsAnalysis.client9.interfaceTable\""
par Wifi6McsAnalysis.client9.ipv4.icmp routingTableModule "\"Wifi6McsAnalysis.client9.ipv4.routingTable\""
par Wifi6McsAnalysis.client9.ipv4.icmp crcMode "\"declared\""
attr enum declared,computed
attr mutable ""
par Wifi6McsAnalysis.client9.ipv4.icmp quoteLength 8B
attr mutable ""
attr unit B
par Wifi6McsAnalysis.client9.ipv4.mp typename "\"inet.common.MessageDispatcher\""
par Wifi6McsAnalysis.client9.ipv4.mp displayStringTextFormat "\"processed %p pk (%l)\""
par Wifi6McsAnalysis.client9.ipv4.mp forwardServiceRegistration true
par Wifi6McsAnalysis.client9.ipv4.mp forwardProtocolRegistration true
par Wifi6McsAnalysis.client9.ipv4.ip typename "\"inet.networklayer.ipv4.Ipv4\""
par Wifi6McsAnalysis.client9.ipv4.ip interfaceTableModule "\"Wifi6McsAnalysis.client9.interfaceTable\""
par Wifi6McsAnalysis.client9.ipv4.ip routingTableModule "\"Wifi6McsAnalysis.client9.ipv4.routingTable\""
par Wifi6McsAnalysis.client9.ipv4.ip arpModule "\"Wifi6McsAnalysis.client9.ipv4.arp\""
par Wifi6McsAnalysis.client9.ipv4.ip icmpModule "\"Wifi6McsAnalysis.client9.ipv4.icmp\""
par Wifi6McsAnalysis.client9.ipv4.ip crcMode "\"declared\""
attr enum declared,computed
par Wifi6McsAnalysis.client9.ipv4.ip timeToLive 32
par Wifi6McsAnalysis.client9.ipv4.ip multicastTimeToLive 32
par Wifi6McsAnalysis.client9.ipv4.ip fragmentTimeout 60s
attr unit s
par Wifi6McsAnalysis.client9.ipv4.ip limitedBroadcast false
par Wifi6McsAnalysis.client9.ipv4.ip directBroadcastInterfaces "\"\""
scalar Wifi6McsAnalysis.client9.ipv4.ip packetDropAddressResolutionFailed:count 18000
attr interpolationmode none
attr recordingmode count
attr source packetDropReasonIsAddressResolutionFailed(packetDropped)
attr title "packet drop: address resolution failed, count"
scalar Wifi6McsAnalysis.client9.ipv4.ip packetDropAddressResolutionFailed:sum(packetBytes) 18936000
attr interpolationmode none
attr recordingmode sum(packetBytes)
attr source packetDropReasonIsAddressResolutionFailed(packetDropped)
attr title "packet drop: address resolution failed, sum(packetBytes)"
scalar Wifi6McsAnalysis.client9.ipv4.ip packetDropHopLimitReached:count 0
attr interpolationmode none
attr recordingmode count
attr source packetDropReasonIsHopLimitReached(packetDropped)
attr title "packet drop: hop limit reached, count"
scalar Wifi6McsAnalysis.client9.ipv4.ip packetDropHopLimitReached:sum(packetBytes) 0
attr interpolationmode none
attr recordingmode sum(packetBytes)
attr source packetDropReasonIsHopLimitReached(packetDropped)
attr title "packet drop: hop limit reached, sum(packetBytes)"
scalar Wifi6McsAnalysis.client9.ipv4.ip packetDropForwardingDisabled:count 0
attr interpolationmode none
attr recordingmode count
attr source packetDropReasonIsForwardingDisabled(packetDropped)
attr title "packet drop: forwarding disabled, count"
scalar Wifi6McsAnalysis.client9.ipv4.ip packetDropForwardingDisabled:sum(packetBytes) 0
attr interpolationmode none
attr recordingmode sum(packetBytes)
attr source packetDropReasonIsForwardingDisabled(packetDropped)
attr title "packet drop: forwarding disabled, sum(packetBytes)"
scalar Wifi6McsAnalysis.client9.ipv4.ip packetDropNoInterfaceFound:count 0
attr interpolationmode none
attr recordingmode count
attr source packetDropReasonIsNoInterfaceFound(packetDropped)
attr title "packet drop: no interface found, count"
scalar Wifi6McsAnalysis.client9.ipv4.ip packetDropNoInterfaceFound:sum(packetBytes) 0
attr interpolationmode none
attr recordingmode sum(packetBytes)
attr source packetDropReasonIsNoInterfaceFound(packetDropped)
attr title "packet drop: no interface found, sum(packetBytes)"
scalar Wifi6McsAnalysis.client9.ipv4.ip packetDropNoRouteFound:count 0
attr interpolationmode none
attr recordingmode count
attr source packetDropReasonIsNoRouteFound(packetDropped)
attr title "packet drop: no route found, count"
scalar Wifi6McsAnalysis.client9.ipv4.ip packetDropNoRouteFound:sum(packetBytes) 0
attr interpolationmode none
attr recordingmode sum(packetBytes)
attr source packetDropReasonIsNoRouteFound(packetDropped)
attr title "packet drop: no route found, sum(packetBytes)"
scalar Wifi6McsAnalysis.client9.ipv4.ip packetDropUndefined:count 0
attr interpolationmode none
attr recordingmode count
attr source packetDropReasonIsUndefined(packetDropped)
attr title "packet drop: undefined, count"
scalar Wifi6McsAnalysis.client9.ipv4.ip packetDropUndefined:sum(packetBytes) 0
attr interpolationmode none
attr recordingmode sum(packetBytes)
attr source packetDropReasonIsUndefined(packetDropped)
attr title "packet drop: undefined, sum(packetBytes)"
par Wifi6McsAnalysis.client9.ipv4.arp typename "\"inet.networklayer.arp.ipv4.Arp\""
par Wifi6McsAnalysis.client9.ipv4.arp interfaceTableModule "\"Wifi6McsAnalysis.client9.interfaceTable\""
par Wifi6McsAnalysis.client9.ipv4.arp routingTableModule "\"Wifi6McsAnalysis.client9.ipv4.routingTable\""
par Wifi6McsAnalysis.client9.ipv4.arp retryTimeout 1s
attr unit s
par Wifi6McsAnalysis.client9.ipv4.arp retryCount 3
par Wifi6McsAnalysis.client9.ipv4.arp cacheTimeout 120s
attr unit s
par Wifi6McsAnalysis.client9.ipv4.arp proxyArpInterfaces "\"\""
scalar Wifi6McsAnalysis.client9.ipv4.arp arpReplySent:count 0
attr recordingmode count
attr source arpReplySent
attr title "ARP replies sent, count"
scalar Wifi6McsAnalysis.client9.ipv4.arp arpReplySent:sum(packetBytes) 0
attr recordingmode sum(packetBytes)
attr source arpReplySent
attr title "ARP replies sent, sum(packetBytes)"
scalar Wifi6McsAnalysis.client9.ipv4.arp arpRequestSent:count 20
attr recordingmode count
attr source arpRequestSent
attr title "ARP request sent, count"
scalar Wifi6McsAnalysis.client9.ipv4.arp arpRequestSent:sum(packetBytes) 560
attr recordingmode sum(packetBytes)
attr source arpRequestSent
attr title "ARP request sent, sum(packetBytes)"
scalar Wifi6McsAnalysis.client9.ipv4.arp arpResolutionFailed:count 6
attr recordingmode count
attr title "ARP failed resolutions, count"
scalar Wifi6McsAnalysis.client9.ipv4.arp arpResolutionCompleted:count 0
attr recordingmode count
attr title "ARP completed resolutions, count"
scalar Wifi6McsAnalysis.client9.ipv4.arp arpResolutionInitiated:count 7
attr recordingmode count
attr title "ARP initiated resolutions, count"
par Wifi6McsAnalysis.client9.ipv4.lp typename "\"inet.common.MessageDispatcher\""
par Wifi6McsAnalysis.client9.ipv4.lp displayStringTextFormat "\"processed %p pk (%l)\""
par Wifi6McsAnalysis.client9.ipv4.lp forwardServiceRegistration true
par Wifi6McsAnalysis.client9.ipv4.lp forwardProtocolRegistration true
par Wifi6McsAnalysis.client9.ipv4 typename "\"inet.networklayer.ipv4.Ipv4NetworkLayer\""
par Wifi6McsAnalysis.client9.ipv4 forwarding false
par Wifi6McsAnalysis.client9.ipv4 multicastForwarding false
par Wifi6McsAnalysis.client9.ipv4 interfaceTableModule "\"Wifi6McsAnalysis.client9.interfaceTable\""
par Wifi6McsAnalysis.client9.ipv4 displayStringTextFormat "\"%i\""
par Wifi6McsAnalysis.client9.nl typename "\"inet.common.MessageDispatcher\""
par Wifi6McsAnalysis.client9.nl displayStringTextFormat "\"processed %p pk (%l)\""
par Wifi6McsAnalysis.client9.nl forwardServiceRegistration true
par Wifi6McsAnalysis.client9.nl forwardProtocolRegistration true
par Wifi6McsAnalysis.client9.udp typename "\"inet.transportlayer.udp.Udp\""
par Wifi6McsAnalysis.client9.udp interfaceTableModule "\"Wifi6McsAnalysis.client9.interfaceTable\""
par Wifi6McsAnalysis.client9.udp icmpModule "\"^.ipv4.icmp\""
par Wifi6McsAnalysis.client9.udp icmpv6Module "\"^.ipv6.icmpv6\""
par Wifi6McsAnalysis.client9.udp crcMode "\"declared\""
attr enum disabled,declared,computed
par Wifi6McsAnalysis.client9.udp defaultMulticastLoop true
scalar Wifi6McsAnalysis.client9.udp packetReceived:count 0
attr interpolationmode none
attr recordingmode count
attr source packetReceived
attr title "packets received, count"
scalar Wifi6McsAnalysis.client9.udp packetReceived:sum(packetBytes) 0
attr interpolationmode none
attr recordingmode sum(packetBytes)
attr source packetReceived
attr title "packets received, sum(packetBytes)"
scalar Wifi6McsAnalysis.client9.udp packetSent:count 20000
attr interpolationmode none
attr recordingmode count
attr source packetSent
attr title "packets sent, count"
scalar Wifi6McsAnalysis.client9.udp packetSent:sum(packetBytes) 20640000
attr interpolationmode none
attr recordingmode sum(packetBytes)
attr source packetSent
attr title "packets sent, sum(packetBytes)"
scalar Wifi6McsAnalysis.client9.udp passedUpPk:count 0
attr interpolationmode none
attr recordingmode count
attr source packetSentToUpper
attr title "packets passed up, count"
scalar Wifi6McsAnalysis.client9.udp droppedPkWrongPort:count 0
attr interpolationmode none
attr recordingmode count
attr source packetDropReasonIsNoPortFound(packetDropped)
attr title "packets dropped (wrong port), count"
scalar Wifi6McsAnalysis.client9.udp droppedPkBadChecksum:count 0
attr interpolationmode none
attr recordingmode count
attr source packetDropReasonIsIncorrectlyReceived(packetDropped)
attr title "packets dropped (checksum error), count"
par Wifi6McsAnalysis.client9.tcp typename "\"inet.transportlayer.tcp.Tcp\""
par Wifi6McsAnalysis.client9.tcp crcMode "\"declared\""
attr enum declared,computed
par Wifi6McsAnalysis.client9.tcp advertisedWindow 7504
par Wifi6McsAnalysis.client9.tcp delayedAcksEnabled false
par Wifi6McsAnalysis.client9.tcp nagleEnabled true
par Wifi6McsAnalysis.client9.tcp limitedTransmitEnabled false
par Wifi6McsAnalysis.client9.tcp increasedIWEnabled false
par Wifi6McsAnalysis.client9.tcp sackSupport false
par Wifi6McsAnalysis.client9.tcp windowScalingSupport false
par Wifi6McsAnalysis.client9.tcp windowScalingFactor -1
par Wifi6McsAnalysis.client9.tcp timestampSupport false
par Wifi6McsAnalysis.client9.tcp mss 536
par Wifi6McsAnalysis.client9.tcp msl 120s
attr unit s
par Wifi6McsAnalysis.client9.tcp tcpAlgorithmClass "\"TcpReno\""
par Wifi6McsAnalysis.client9.tcp useDataNotification false
par Wifi6McsAnalysis.client9.tcp dupthresh 3
par Wifi6McsAnalysis.client9.tcp initialSsthresh 4294967295
par Wifi6McsAnalysis.client9.tcp stopOperationExtraTime 0s
attr unit s
par Wifi6McsAnalysis.client9.tcp stopOperationTimeout 2s
attr unit s
par Wifi6McsAnalysis.client9.tcp ecnWillingness false
par Wifi6McsAnalysis.client9.tcp dctcpGamma 0.0625
par Wifi6McsAnalysis.client9.tn typename "\"inet.common.MessageDispatcher\""
par Wifi6McsAnalysis.client9.tn displayStringTextFormat "\"processed %p pk (%l)\""
par Wifi6McsAnalysis.client9.tn forwardServiceRegistration true
par Wifi6McsAnalysis.client9.tn forwardProtocolRegistration true
par Wifi6McsAnalysis.client9.app[0] typename "\"inet.applications.udpapp.UdpBasicApp\""
par Wifi6McsAnalysis.client9.app[0] interfaceTableModule "\"Wifi6McsAnalysis.client9.interfaceTable\""
par Wifi6McsAnalysis.client9.app[0] clockModule "\"\""
par Wifi6McsAnalysis.client9.app[0] localPort 5000
par Wifi6McsAnalysis.client9.app[0] destAddresses "\"192.168.1.1\""
par Wifi6McsAnalysis.client9.app[0] localAddress "\"\""
par Wifi6McsAnalysis.client9.app[0] packetName "\"UdpBasicAppData\""
par Wifi6McsAnalysis.client9.app[0] destPort 5000
par Wifi6McsAnalysis.client9.app[0] messageLength 1024B
attr unit B
par Wifi6McsAnalysis.client9.app[0] startTime 0.001s
attr unit s
par Wifi6McsAnalysis.client9.app[0] stopTime -1s
attr unit s
par Wifi6McsAnalysis.client9.app[0] sendInterval 0.001s
attr unit s
par Wifi6McsAnalysis.client9.app[0] timeToLive -1
par Wifi6McsAnalysis.client9.app[0] dontFragment false
par Wifi6McsAnalysis.client9.app[0] dscp -1
par Wifi6McsAnalysis.client9.app[0] tos -1
par Wifi6McsAnalysis.client9.app[0] multicastInterface "\"\""
par Wifi6McsAnalysis.client9.app[0] receiveBroadcast false
par Wifi6McsAnalysis.client9.app[0] joinLocalMulticastGroups false
par Wifi6McsAnalysis.client9.app[0] stopOperationExtraTime -1s
attr unit s
par Wifi6McsAnalysis.client9.app[0] stopOperationTimeout 2s
attr unit s
scalar Wifi6McsAnalysis.client9.app[0] "packets sent" 20000
scalar Wifi6McsAnalysis.client9.app[0] "packets received" 0
scalar Wifi6McsAnalysis.client9.app[0] packetReceived:count 0
attr interpolationmode none
attr recordingmode count
attr source packetReceived
attr title "packets received, count"
scalar Wifi6McsAnalysis.client9.app[0] packetReceived:sum(packetBytes) 0
attr interpolationmode none
attr recordingmode sum(packetBytes)
attr source packetReceived
attr title "packets received, sum(packetBytes)"
statistic Wifi6McsAnalysis.client9.app[0] rcvdPkLifetime:stats
field count 0
field mean nan
field stddev nan
field min nan
field max nan
field sum 0
field sqrsum 0
attr interpolationmode none
attr recordingmode stats
attr source dataAge(packetReceived)
attr title "received packet lifetime"
attr unit s
scalar Wifi6McsAnalysis.client9.app[0] packetSent:count 20000
attr interpolationmode none
attr recordingmode count
attr source packetSent
attr title "packets sent, count"
scalar Wifi6McsAnalysis.client9.app[0] packetSent:sum(packetBytes) 20480000
attr interpolationmode none
attr recordingmode sum(packetBytes)
attr source packetSent
attr title "packets sent, sum(packetBytes)"
par Wifi6McsAnalysis.client9.at typename "\"inet.common.MessageDispatcher\""
par Wifi6McsAnalysis.client9.at displayStringTextFormat "\"processed %p pk (%l)\""
par Wifi6McsAnalysis.client9.at forwardServiceRegistration true
par Wifi6McsAnalysis.client9.at forwardProtocolRegistration true
par Wifi6McsAnalysis.client9 typename "\"inet.node.inet.WirelessHost\""
par Wifi6McsAnalysis.client9 hasStatus false
par Wifi6McsAnalysis.client9 osgModel "\"\""
par Wifi6McsAnalysis.client9 osgModelColor "\"\""
par Wifi6McsAnalysis.client9 canvasImage "\"\""
par Wifi6McsAnalysis.client9 canvasImageColor "\"\""
par Wifi6McsAnalysis.client9 recordPcap false
par Wifi6McsAnalysis.client9 numPcapRecorders 0
par Wifi6McsAnalysis.client9 numLoInterfaces 1
par Wifi6McsAnalysis.client9 numWlanInterfaces 1
par Wifi6McsAnalysis.client9 numEthInterfaces 0
par Wifi6McsAnalysis.client9 numPppInterfaces 0
par Wifi6McsAnalysis.client9 numTunInterfaces 0
par Wifi6McsAnalysis.client9 numVirtInterfaces 0
par Wifi6McsAnalysis.client9 fcsMode "\"declared\""
attr enum declared,computed
par Wifi6McsAnalysis.client9 hasIpv4 true
par Wifi6McsAnalysis.client9 hasIpv6 false
par Wifi6McsAnalysis.client9 hasGn false
par Wifi6McsAnalysis.client9 forwarding false
par Wifi6McsAnalysis.client9 multicastForwarding false
par Wifi6McsAnalysis.client9 hasUdp true
par Wifi6McsAnalysis.client9 hasTcp true
par Wifi6McsAnalysis.client9 hasSctp false
par Wifi6McsAnalysis.client9 numApps 1
par Wifi6McsAnalysis.metricGenerator typename "\"final.MetricGenerator\""
par Wifi6McsAnalysis.metricGenerator throughput 50
par Wifi6McsAnalysis.metricGenerator latency 10
par Wifi6McsAnalysis.metricGenerator currentMcs 5
par Wifi6McsAnalysis.recorder typename "\"final.ModuleRecorder\""
par Wifi6McsAnalysis.recorder outputFile "\"wifi6_analysis_log.txt\""
par Wifi6McsAnalysis typename "\"final.Wifi6McsAnalysis\""
par Wifi6McsAnalysis currentMcs 7
attr mutable ""
par Wifi6McsAnalysis throughput 19.6902
attr mutable ""
par Wifi6McsAnalysis latency 27.4637
attr mutable ""

